MODEL 1
REMARK VINA RESULT:    -7.290      0.000      0.000
REMARK INTER + INTRA:         -10.476
REMARK INTER:                  -8.994
REMARK INTRA:                  -1.482
REMARK UNBOUND:                -1.482
REMARK VINA RESULT:    -7.501      0.000      0.000
REMARK INTER + INTRA:         -12.989
REMARK INTER:                  -9.255
REMARK INTRA:                  -3.734
REMARK UNBOUND:                -3.734
REMARK SMILES C[C@@H](C(=O)Nc1ccc(Cl)cc1)[C@H]1CC[C@@H](c2ccnc3ccc(F)cc32)CC1
REMARK SMILES IDX 2 1 1 2 13 3 14 4 29 5 15 6 28 7 16 8 17 9 18 10 27 11 19 12
REMARK SMILES IDX 26 13 21 14 20 15 24 16 22 17 23 18 25 19 3 20 4 21 5 22
REMARK SMILES IDX 6 24 7 25 12 26 8 27 11 28 9 29 10 30
REMARK H PARENT 5 23
ROOT
ATOM      1  C   UNL     1     133.618 138.610 153.855  1.00  0.00     0.079 C 
ATOM      2  C   UNL     1     134.278 139.541 154.849  1.00  0.00     0.018 C 
ENDROOT
BRANCH   1   3
ATOM      3  C   UNL     1     133.307 139.257 152.535  1.00  0.00     0.001 C 
ATOM      4  C   UNL     1     132.600 138.356 151.599  1.00  0.00     0.005 C 
ATOM      5  C   UNL     1     134.527 139.966 151.999  1.00  0.00     0.005 C 
ATOM      6  C   UNL     1     133.473 137.567 150.642  1.00  0.00     0.009 C 
ATOM      7  C   UNL     1     135.376 139.012 151.128  1.00  0.00     0.009 C 
ATOM      8  C   UNL     1     134.489 138.491 150.077  1.00  0.00     0.020 C 
BRANCH   8   9
ATOM      9  C   UNL     1     135.012 138.243 148.733  1.00  0.00    -0.034 A 
ATOM     10  C   UNL     1     136.040 137.340 148.441  1.00  0.00     0.025 A 
ATOM     11  C   UNL     1     134.494 138.888 147.600  1.00  0.00     0.007 A 
ATOM     12  C   UNL     1     136.498 137.110 147.165  1.00  0.00     0.112 A 
ATOM     13  C   UNL     1     133.482 139.818 147.692  1.00  0.00     0.049 A 
ATOM     14  C   UNL     1     134.977 138.631 146.331  1.00  0.00     0.071 A 
ATOM     15  N   UNL     1     135.970 137.751 146.107  1.00  0.00    -0.256 NA
ATOM     16  C   UNL     1     132.953 140.474 146.622  1.00  0.00     0.123 A 
ATOM     17  C   UNL     1     134.464 139.278 145.221  1.00  0.00     0.032 A 
ATOM     18  C   UNL     1     133.444 140.207 145.360  1.00  0.00     0.041 A 
ATOM     19  F   UNL     1     131.958 141.378 146.777  1.00  0.00    -0.207 F 
ENDBRANCH   8   9
ENDBRANCH   1   3
BRANCH   1  20
ATOM     20  C   UNL     1     132.443 138.009 154.519  1.00  0.00     0.227 C 
ATOM     21  O   UNL     1     132.538 136.865 155.022  1.00  0.00    -0.274 OA
ATOM     22  N   UNL     1     131.228 138.734 154.576  1.00  0.00    -0.326 N 
ATOM     23  H   UNL     1     131.248 139.683 154.126  1.00  0.00     0.169 HD
BRANCH  22  24
ATOM     24  C   UNL     1     130.033 138.315 155.161  1.00  0.00     0.041 A 
ATOM     25  C   UNL     1     129.635 138.512 156.455  1.00  0.00     0.027 A 
ATOM     26  C   UNL     1     129.120 137.610 154.360  1.00  0.00     0.027 A 
ATOM     27  C   UNL     1     128.410 138.049 156.949  1.00  0.00     0.022 A 
ATOM     28  C   UNL     1     127.923 137.155 154.834  1.00  0.00     0.022 A 
ATOM     29  C   UNL     1     127.542 137.365 156.142  1.00  0.00     0.041 A 
ATOM     30  Cl  UNL     1     126.011 136.768 156.696  1.00  0.00    -0.084 Cl
ENDBRANCH  22  24
ENDBRANCH   1  20
TORSDOF 4
ENDMDL
