MODEL 1
REMARK VINA RESULT:    -7.294      0.000      0.000
REMARK INTER + INTRA:         -10.480
REMARK INTER:                  -9.000
REMARK INTRA:                  -1.480
REMARK UNBOUND:                -1.480
REMARK VINA RESULT:    -7.501      0.000      0.000
REMARK INTER + INTRA:         -12.989
REMARK INTER:                  -9.255
REMARK INTRA:                  -3.734
REMARK UNBOUND:                -3.734
REMARK SMILES C[C@@H](C(=O)Nc1ccc(Cl)cc1)[C@H]1CC[C@@H](c2ccnc3ccc(F)cc32)CC1
REMARK SMILES IDX 2 1 1 2 13 3 14 4 29 5 15 6 28 7 16 8 17 9 18 10 27 11 19 12
REMARK SMILES IDX 26 13 21 14 20 15 24 16 22 17 23 18 25 19 3 20 4 21 5 22
REMARK SMILES IDX 6 24 7 25 12 26 8 27 11 28 9 29 10 30
REMARK H PARENT 5 23
ROOT
ATOM      1  C   UNL     1     133.622 138.616 153.846  1.00  0.00     0.079 C 
ATOM      2  C   UNL     1     134.285 139.555 154.831  1.00  0.00     0.018 C 
ENDROOT
BRANCH   1   3
ATOM      3  C   UNL     1     133.304 139.254 152.523  1.00  0.00     0.001 C 
ATOM      4  C   UNL     1     132.606 138.343 151.592  1.00  0.00     0.005 C 
ATOM      5  C   UNL     1     134.516 139.973 151.984  1.00  0.00     0.005 C 
ATOM      6  C   UNL     1     133.486 137.558 150.638  1.00  0.00     0.009 C 
ATOM      7  C   UNL     1     135.375 139.025 151.117  1.00  0.00     0.009 C 
ATOM      8  C   UNL     1     134.493 138.491 150.068  1.00  0.00     0.020 C 
BRANCH   8   9
ATOM      9  C   UNL     1     135.017 138.243 148.725  1.00  0.00    -0.034 A 
ATOM     10  C   UNL     1     136.045 137.338 148.435  1.00  0.00     0.025 A 
ATOM     11  C   UNL     1     134.502 138.889 147.592  1.00  0.00     0.007 A 
ATOM     12  C   UNL     1     136.504 137.107 147.159  1.00  0.00     0.112 A 
ATOM     13  C   UNL     1     133.492 139.820 147.681  1.00  0.00     0.049 A 
ATOM     14  C   UNL     1     134.988 138.631 146.323  1.00  0.00     0.071 A 
ATOM     15  N   UNL     1     135.980 137.750 146.101  1.00  0.00    -0.256 NA
ATOM     16  C   UNL     1     132.966 140.477 146.611  1.00  0.00     0.123 A 
ATOM     17  C   UNL     1     134.478 139.280 145.213  1.00  0.00     0.032 A 
ATOM     18  C   UNL     1     133.459 140.211 145.350  1.00  0.00     0.041 A 
ATOM     19  F   UNL     1     131.972 141.383 146.765  1.00  0.00    -0.207 F 
ENDBRANCH   8   9
ENDBRANCH   1   3
BRANCH   1  20
ATOM     20  C   UNL     1     132.452 138.017 154.519  1.00  0.00     0.227 C 
ATOM     21  O   UNL     1     132.557 136.885 155.047  1.00  0.00    -0.274 OA
ATOM     22  N   UNL     1     131.228 138.729 154.556  1.00  0.00    -0.326 N 
ATOM     23  H   UNL     1     131.239 139.669 154.085  1.00  0.00     0.169 HD
BRANCH  22  24
ATOM     24  C   UNL     1     130.036 138.310 155.145  1.00  0.00     0.041 A 
ATOM     25  C   UNL     1     129.646 138.500 156.443  1.00  0.00     0.027 A 
ATOM     26  C   UNL     1     129.116 137.612 154.346  1.00  0.00     0.027 A 
ATOM     27  C   UNL     1     128.423 138.038 156.942  1.00  0.00     0.022 A 
ATOM     28  C   UNL     1     127.920 137.159 154.825  1.00  0.00     0.022 A 
ATOM     29  C   UNL     1     127.548 137.361 156.136  1.00  0.00     0.041 A 
ATOM     30  Cl  UNL     1     126.019 136.764 156.696  1.00  0.00    -0.084 Cl
ENDBRANCH  22  24
ENDBRANCH   1  20
TORSDOF 4
ENDMDL
