MODEL 1
REMARK VINA RESULT:    -7.153      0.000      0.000
REMARK INTER + INTRA:         -10.186
REMARK INTER:                  -8.826
REMARK INTRA:                  -1.360
REMARK UNBOUND:                -1.360
REMARK VINA RESULT:    -7.501      0.000      0.000
REMARK INTER + INTRA:         -12.989
REMARK INTER:                  -9.255
REMARK INTRA:                  -3.734
REMARK UNBOUND:                -3.734
REMARK SMILES C[C@@H](C(=O)Nc1ccc(Cl)cc1)[C@H]1CC[C@@H](c2ccnc3ccc(F)cc32)CC1
REMARK SMILES IDX 2 1 1 2 13 3 14 4 29 5 15 6 28 7 16 8 17 9 18 10 27 11 19 12
REMARK SMILES IDX 26 13 21 14 20 15 24 16 22 17 23 18 25 19 3 20 4 21 5 22
REMARK SMILES IDX 6 24 7 25 12 26 8 27 11 28 9 29 10 30
REMARK H PARENT 5 23
ROOT
ATOM      1  C   UNL     1     134.490 137.184 151.731  1.00  0.00     0.079 C 
ATOM      2  C   UNL     1     134.921 135.733 151.768  1.00  0.00     0.018 C 
ENDROOT
BRANCH   1   3
ATOM      3  C   UNL     1     133.010 137.379 151.902  1.00  0.00     0.001 C 
ATOM      4  C   UNL     1     132.653 138.733 152.377  1.00  0.00     0.005 C 
ATOM      5  C   UNL     1     132.412 136.218 152.658  1.00  0.00     0.005 C 
ATOM      6  C   UNL     1     132.523 138.902 153.879  1.00  0.00     0.009 C 
ATOM      7  C   UNL     1     132.440 136.483 154.180  1.00  0.00     0.009 C 
ATOM      8  C   UNL     1     131.737 137.755 154.405  1.00  0.00     0.020 C 
BRANCH   8   9
ATOM      9  C   UNL     1     130.919 137.940 155.603  1.00  0.00    -0.034 A 
ATOM     10  C   UNL     1     131.429 138.278 156.861  1.00  0.00     0.025 A 
ATOM     11  C   UNL     1     129.522 137.814 155.579  1.00  0.00     0.007 A 
ATOM     12  C   UNL     1     130.634 138.467 157.968  1.00  0.00     0.112 A 
ATOM     13  C   UNL     1     128.841 137.477 154.431  1.00  0.00     0.049 A 
ATOM     14  C   UNL     1     128.753 138.012 156.711  1.00  0.00     0.071 A 
ATOM     15  N   UNL     1     129.297 138.337 157.898  1.00  0.00    -0.256 NA
ATOM     16  C   UNL     1     127.489 137.337 154.361  1.00  0.00     0.123 A 
ATOM     17  C   UNL     1     127.377 137.878 156.678  1.00  0.00     0.032 A 
ATOM     18  C   UNL     1     126.733 137.538 155.498  1.00  0.00     0.041 A 
ATOM     19  F   UNL     1     126.878 137.004 153.201  1.00  0.00    -0.207 F 
ENDBRANCH   8   9
ENDBRANCH   1   3
BRANCH   1  20
ATOM     20  C   UNL     1     135.034 137.780 150.495  1.00  0.00     0.227 C 
ATOM     21  O   UNL     1     135.693 138.845 150.562  1.00  0.00    -0.274 OA
ATOM     22  N   UNL     1     134.804 137.141 149.252  1.00  0.00    -0.326 N 
ATOM     23  H   UNL     1     134.241 136.255 149.299  1.00  0.00     0.169 HD
BRANCH  22  24
ATOM     24  C   UNL     1     135.244 137.569 148.000  1.00  0.00     0.041 A 
ATOM     25  C   UNL     1     136.417 137.234 147.379  1.00  0.00     0.027 A 
ATOM     26  C   UNL     1     134.416 138.440 147.273  1.00  0.00     0.027 A 
ATOM     27  C   UNL     1     136.770 137.719 146.115  1.00  0.00     0.022 A 
ATOM     28  C   UNL     1     134.752 138.917 146.039  1.00  0.00     0.022 A 
ATOM     29  C   UNL     1     135.940 138.566 145.432  1.00  0.00     0.041 A 
ATOM     30  Cl  UNL     1     136.321 139.200 143.863  1.00  0.00    -0.084 Cl
ENDBRANCH  22  24
ENDBRANCH   1  20
TORSDOF 4
ENDMDL
