MODEL 1
REMARK VINA RESULT:    -7.290      0.000      0.000
REMARK INTER + INTRA:         -10.484
REMARK INTER:                  -8.995
REMARK INTRA:                  -1.489
REMARK UNBOUND:                -1.489
REMARK VINA RESULT:    -7.501      0.000      0.000
REMARK INTER + INTRA:         -12.989
REMARK INTER:                  -9.255
REMARK INTRA:                  -3.734
REMARK UNBOUND:                -3.734
REMARK SMILES C[C@@H](C(=O)Nc1ccc(Cl)cc1)[C@H]1CC[C@@H](c2ccnc3ccc(F)cc32)CC1
REMARK SMILES IDX 2 1 1 2 13 3 14 4 29 5 15 6 28 7 16 8 17 9 18 10 27 11 19 12
REMARK SMILES IDX 26 13 21 14 20 15 24 16 22 17 23 18 25 19 3 20 4 21 5 22
REMARK SMILES IDX 6 24 7 25 12 26 8 27 11 28 9 29 10 30
REMARK H PARENT 5 23
ROOT
ATOM      1  C   UNL     1     133.629 138.619 153.843  1.00  0.00     0.079 C 
ATOM      2  C   UNL     1     134.293 139.558 154.827  1.00  0.00     0.018 C 
ENDROOT
BRANCH   1   3
ATOM      3  C   UNL     1     133.311 139.257 152.520  1.00  0.00     0.001 C 
ATOM      4  C   UNL     1     132.611 138.345 151.589  1.00  0.00     0.005 C 
ATOM      5  C   UNL     1     134.523 139.975 151.979  1.00  0.00     0.005 C 
ATOM      6  C   UNL     1     133.490 137.559 150.635  1.00  0.00     0.009 C 
ATOM      7  C   UNL     1     135.380 139.025 151.112  1.00  0.00     0.009 C 
ATOM      8  C   UNL     1     134.497 138.491 150.064  1.00  0.00     0.020 C 
BRANCH   8   9
ATOM      9  C   UNL     1     135.020 138.242 148.721  1.00  0.00    -0.034 A 
ATOM     10  C   UNL     1     136.047 137.338 148.430  1.00  0.00     0.025 A 
ATOM     11  C   UNL     1     134.503 138.886 147.587  1.00  0.00     0.007 A 
ATOM     12  C   UNL     1     136.506 137.106 147.155  1.00  0.00     0.112 A 
ATOM     13  C   UNL     1     133.492 139.817 147.677  1.00  0.00     0.049 A 
ATOM     14  C   UNL     1     134.987 138.628 146.318  1.00  0.00     0.071 A 
ATOM     15  N   UNL     1     135.979 137.746 146.096  1.00  0.00    -0.256 NA
ATOM     16  C   UNL     1     132.964 140.472 146.607  1.00  0.00     0.123 A 
ATOM     17  C   UNL     1     134.475 139.275 145.208  1.00  0.00     0.032 A 
ATOM     18  C   UNL     1     133.456 140.205 145.345  1.00  0.00     0.041 A 
ATOM     19  F   UNL     1     131.970 141.378 146.761  1.00  0.00    -0.207 F 
ENDBRANCH   8   9
ENDBRANCH   1   3
BRANCH   1  20
ATOM     20  C   UNL     1     132.459 138.021 154.517  1.00  0.00     0.227 C 
ATOM     21  O   UNL     1     132.559 136.882 155.031  1.00  0.00    -0.274 OA
ATOM     22  N   UNL     1     131.241 138.741 154.570  1.00  0.00    -0.326 N 
ATOM     23  H   UNL     1     131.255 139.686 154.111  1.00  0.00     0.169 HD
BRANCH  22  24
ATOM     24  C   UNL     1     130.049 138.324 155.163  1.00  0.00     0.041 A 
ATOM     25  C   UNL     1     129.666 138.511 156.464  1.00  0.00     0.027 A 
ATOM     26  C   UNL     1     129.124 137.632 154.365  1.00  0.00     0.027 A 
ATOM     27  C   UNL     1     128.443 138.051 156.966  1.00  0.00     0.022 A 
ATOM     28  C   UNL     1     127.929 137.181 154.847  1.00  0.00     0.022 A 
ATOM     29  C   UNL     1     127.563 137.380 156.161  1.00  0.00     0.041 A 
ATOM     30  Cl  UNL     1     126.034 136.786 156.725  1.00  0.00    -0.084 Cl
ENDBRANCH  22  24
ENDBRANCH   1  20
TORSDOF 4
ENDMDL
