MODEL 1
REMARK VINA RESULT:    -7.295      0.000      0.000
REMARK INTER + INTRA:         -10.480
REMARK INTER:                  -9.001
REMARK INTRA:                  -1.479
REMARK UNBOUND:                -1.479
REMARK VINA RESULT:    -7.501      0.000      0.000
REMARK INTER + INTRA:         -12.989
REMARK INTER:                  -9.255
REMARK INTRA:                  -3.734
REMARK UNBOUND:                -3.734
REMARK SMILES C[C@@H](C(=O)Nc1ccc(Cl)cc1)[C@H]1CC[C@@H](c2ccnc3ccc(F)cc32)CC1
REMARK SMILES IDX 2 1 1 2 13 3 14 4 29 5 15 6 28 7 16 8 17 9 18 10 27 11 19 12
REMARK SMILES IDX 26 13 21 14 20 15 24 16 22 17 23 18 25 19 3 20 4 21 5 22
REMARK SMILES IDX 6 24 7 25 12 26 8 27 11 28 9 29 10 30
REMARK H PARENT 5 23
ROOT
ATOM      1  C   UNL     1     133.620 138.617 153.853  1.00  0.00     0.079 C 
ATOM      2  C   UNL     1     134.286 139.557 154.835  1.00  0.00     0.018 C 
ENDROOT
BRANCH   1   3
ATOM      3  C   UNL     1     133.301 139.254 152.530  1.00  0.00     0.001 C 
ATOM      4  C   UNL     1     132.604 138.340 151.599  1.00  0.00     0.005 C 
ATOM      5  C   UNL     1     134.511 139.976 151.990  1.00  0.00     0.005 C 
ATOM      6  C   UNL     1     133.486 137.557 150.646  1.00  0.00     0.009 C 
ATOM      7  C   UNL     1     135.371 139.029 151.123  1.00  0.00     0.009 C 
ATOM      8  C   UNL     1     134.490 138.492 150.074  1.00  0.00     0.020 C 
BRANCH   8   9
ATOM      9  C   UNL     1     135.014 138.244 148.732  1.00  0.00    -0.034 A 
ATOM     10  C   UNL     1     136.044 137.342 148.442  1.00  0.00     0.025 A 
ATOM     11  C   UNL     1     134.497 138.888 147.598  1.00  0.00     0.007 A 
ATOM     12  C   UNL     1     136.504 137.112 147.166  1.00  0.00     0.112 A 
ATOM     13  C   UNL     1     133.484 139.816 147.688  1.00  0.00     0.049 A 
ATOM     14  C   UNL     1     134.982 138.631 146.329  1.00  0.00     0.071 A 
ATOM     15  N   UNL     1     135.976 137.752 146.107  1.00  0.00    -0.256 NA
ATOM     16  C   UNL     1     132.955 140.471 146.617  1.00  0.00     0.123 A 
ATOM     17  C   UNL     1     134.469 139.277 145.219  1.00  0.00     0.032 A 
ATOM     18  C   UNL     1     133.447 140.205 145.356  1.00  0.00     0.041 A 
ATOM     19  F   UNL     1     131.959 141.374 146.771  1.00  0.00    -0.207 F 
ENDBRANCH   8   9
ENDBRANCH   1   3
BRANCH   1  20
ATOM     20  C   UNL     1     132.451 138.021 154.529  1.00  0.00     0.227 C 
ATOM     21  O   UNL     1     132.558 136.892 155.064  1.00  0.00    -0.274 OA
ATOM     22  N   UNL     1     131.226 138.731 154.561  1.00  0.00    -0.326 N 
ATOM     23  H   UNL     1     131.236 139.668 154.085  1.00  0.00     0.169 HD
BRANCH  22  24
ATOM     24  C   UNL     1     130.034 138.313 155.153  1.00  0.00     0.041 A 
ATOM     25  C   UNL     1     129.647 138.505 156.451  1.00  0.00     0.027 A 
ATOM     26  C   UNL     1     129.112 137.615 154.355  1.00  0.00     0.027 A 
ATOM     27  C   UNL     1     128.424 138.044 156.953  1.00  0.00     0.022 A 
ATOM     28  C   UNL     1     127.917 137.163 154.837  1.00  0.00     0.022 A 
ATOM     29  C   UNL     1     127.547 137.367 156.149  1.00  0.00     0.041 A 
ATOM     30  Cl  UNL     1     126.018 136.772 156.711  1.00  0.00    -0.084 Cl
ENDBRANCH  22  24
ENDBRANCH   1  20
TORSDOF 4
ENDMDL
