MODEL 1
REMARK VINA RESULT:    -7.159      0.000      0.000
REMARK INTER + INTRA:         -10.193
REMARK INTER:                  -8.833
REMARK INTRA:                  -1.360
REMARK UNBOUND:                -1.360
REMARK VINA RESULT:    -7.501      0.000      0.000
REMARK INTER + INTRA:         -12.989
REMARK INTER:                  -9.255
REMARK INTRA:                  -3.734
REMARK UNBOUND:                -3.734
REMARK SMILES C[C@@H](C(=O)Nc1ccc(Cl)cc1)[C@H]1CC[C@@H](c2ccnc3ccc(F)cc32)CC1
REMARK SMILES IDX 2 1 1 2 13 3 14 4 29 5 15 6 28 7 16 8 17 9 18 10 27 11 19 12
REMARK SMILES IDX 26 13 21 14 20 15 24 16 22 17 23 18 25 19 3 20 4 21 5 22
REMARK SMILES IDX 6 24 7 25 12 26 8 27 11 28 9 29 10 30
REMARK H PARENT 5 23
ROOT
ATOM      1  C   UNL     1     134.474 137.182 151.730  1.00  0.00     0.079 C 
ATOM      2  C   UNL     1     134.912 135.734 151.766  1.00  0.00     0.018 C 
ENDROOT
BRANCH   1   3
ATOM      3  C   UNL     1     132.993 137.370 151.901  1.00  0.00     0.001 C 
ATOM      4  C   UNL     1     132.630 138.725 152.369  1.00  0.00     0.005 C 
ATOM      5  C   UNL     1     132.403 136.210 152.665  1.00  0.00     0.005 C 
ATOM      6  C   UNL     1     132.501 138.902 153.870  1.00  0.00     0.009 C 
ATOM      7  C   UNL     1     132.432 136.485 154.186  1.00  0.00     0.009 C 
ATOM      8  C   UNL     1     131.722 137.754 154.404  1.00  0.00     0.020 C 
BRANCH   8   9
ATOM      9  C   UNL     1     130.905 137.941 155.602  1.00  0.00    -0.034 A 
ATOM     10  C   UNL     1     131.416 138.279 156.860  1.00  0.00     0.025 A 
ATOM     11  C   UNL     1     129.508 137.819 155.579  1.00  0.00     0.007 A 
ATOM     12  C   UNL     1     130.623 138.470 157.967  1.00  0.00     0.112 A 
ATOM     13  C   UNL     1     128.826 137.484 154.431  1.00  0.00     0.049 A 
ATOM     14  C   UNL     1     128.740 138.020 156.711  1.00  0.00     0.071 A 
ATOM     15  N   UNL     1     129.285 138.344 157.898  1.00  0.00    -0.256 NA
ATOM     16  C   UNL     1     127.473 137.347 154.362  1.00  0.00     0.123 A 
ATOM     17  C   UNL     1     127.363 137.890 156.679  1.00  0.00     0.032 A 
ATOM     18  C   UNL     1     126.718 137.552 155.499  1.00  0.00     0.041 A 
ATOM     19  F   UNL     1     126.860 137.016 153.202  1.00  0.00    -0.207 F 
ENDBRANCH   8   9
ENDBRANCH   1   3
BRANCH   1  20
ATOM     20  C   UNL     1     135.015 137.782 150.493  1.00  0.00     0.227 C 
ATOM     21  O   UNL     1     135.646 138.863 150.557  1.00  0.00    -0.274 OA
ATOM     22  N   UNL     1     134.811 137.127 149.254  1.00  0.00    -0.326 N 
ATOM     23  H   UNL     1     134.271 136.228 149.303  1.00  0.00     0.169 HD
BRANCH  22  24
ATOM     24  C   UNL     1     135.252 137.555 148.002  1.00  0.00     0.041 A 
ATOM     25  C   UNL     1     136.423 137.216 147.379  1.00  0.00     0.027 A 
ATOM     26  C   UNL     1     134.427 138.432 147.278  1.00  0.00     0.027 A 
ATOM     27  C   UNL     1     136.776 137.702 146.115  1.00  0.00     0.022 A 
ATOM     28  C   UNL     1     134.765 138.910 146.044  1.00  0.00     0.022 A 
ATOM     29  C   UNL     1     135.950 138.555 145.436  1.00  0.00     0.041 A 
ATOM     30  Cl  UNL     1     136.332 139.190 143.868  1.00  0.00    -0.084 Cl
ENDBRANCH  22  24
ENDBRANCH   1  20
TORSDOF 4
ENDMDL
