MODEL 1
REMARK VINA RESULT:    -7.160      0.000      0.000
REMARK INTER + INTRA:         -10.195
REMARK INTER:                  -8.834
REMARK INTRA:                  -1.361
REMARK UNBOUND:                -1.361
REMARK VINA RESULT:    -7.501      0.000      0.000
REMARK INTER + INTRA:         -12.989
REMARK INTER:                  -9.255
REMARK INTRA:                  -3.734
REMARK UNBOUND:                -3.734
REMARK SMILES C[C@@H](C(=O)Nc1ccc(Cl)cc1)[C@H]1CC[C@@H](c2ccnc3ccc(F)cc32)CC1
REMARK SMILES IDX 2 1 1 2 13 3 14 4 29 5 15 6 28 7 16 8 17 9 18 10 27 11 19 12
REMARK SMILES IDX 26 13 21 14 20 15 24 16 22 17 23 18 25 19 3 20 4 21 5 22
REMARK SMILES IDX 6 24 7 25 12 26 8 27 11 28 9 29 10 30
REMARK H PARENT 5 23
ROOT
ATOM      1  C   UNL     1     134.478 137.183 151.730  1.00  0.00     0.079 C 
ATOM      2  C   UNL     1     134.912 135.733 151.764  1.00  0.00     0.018 C 
ENDROOT
BRANCH   1   3
ATOM      3  C   UNL     1     132.998 137.375 151.903  1.00  0.00     0.001 C 
ATOM      4  C   UNL     1     132.639 138.729 152.375  1.00  0.00     0.005 C 
ATOM      5  C   UNL     1     132.404 136.214 152.663  1.00  0.00     0.005 C 
ATOM      6  C   UNL     1     132.511 138.902 153.877  1.00  0.00     0.009 C 
ATOM      7  C   UNL     1     132.434 136.484 154.185  1.00  0.00     0.009 C 
ATOM      8  C   UNL     1     131.729 137.755 154.407  1.00  0.00     0.020 C 
BRANCH   8   9
ATOM      9  C   UNL     1     130.912 137.941 155.606  1.00  0.00    -0.034 A 
ATOM     10  C   UNL     1     131.424 138.279 156.864  1.00  0.00     0.025 A 
ATOM     11  C   UNL     1     129.515 137.817 155.585  1.00  0.00     0.007 A 
ATOM     12  C   UNL     1     130.632 138.470 157.971  1.00  0.00     0.112 A 
ATOM     13  C   UNL     1     128.833 137.481 154.437  1.00  0.00     0.049 A 
ATOM     14  C   UNL     1     128.748 138.017 156.718  1.00  0.00     0.071 A 
ATOM     15  N   UNL     1     129.295 138.341 157.904  1.00  0.00    -0.256 NA
ATOM     16  C   UNL     1     127.480 137.343 154.369  1.00  0.00     0.123 A 
ATOM     17  C   UNL     1     127.372 137.885 156.686  1.00  0.00     0.032 A 
ATOM     18  C   UNL     1     126.725 137.546 155.507  1.00  0.00     0.041 A 
ATOM     19  F   UNL     1     126.867 137.011 153.210  1.00  0.00    -0.207 F 
ENDBRANCH   8   9
ENDBRANCH   1   3
BRANCH   1  20
ATOM     20  C   UNL     1     135.020 137.782 150.494  1.00  0.00     0.227 C 
ATOM     21  O   UNL     1     135.677 138.847 150.563  1.00  0.00    -0.274 OA
ATOM     22  N   UNL     1     134.788 137.146 149.250  1.00  0.00    -0.326 N 
ATOM     23  H   UNL     1     134.226 136.259 149.296  1.00  0.00     0.169 HD
BRANCH  22  24
ATOM     24  C   UNL     1     135.225 137.577 147.998  1.00  0.00     0.041 A 
ATOM     25  C   UNL     1     136.395 137.240 147.373  1.00  0.00     0.027 A 
ATOM     26  C   UNL     1     134.398 138.453 147.278  1.00  0.00     0.027 A 
ATOM     27  C   UNL     1     136.746 137.728 146.109  1.00  0.00     0.022 A 
ATOM     28  C   UNL     1     134.733 138.934 146.044  1.00  0.00     0.022 A 
ATOM     29  C   UNL     1     135.917 138.581 145.433  1.00  0.00     0.041 A 
ATOM     30  Cl  UNL     1     136.295 139.219 143.865  1.00  0.00    -0.084 Cl
ENDBRANCH  22  24
ENDBRANCH   1  20
TORSDOF 4
ENDMDL
