MODEL 1
REMARK VINA RESULT:    -7.171      0.000      0.000
REMARK INTER + INTRA:         -10.206
REMARK INTER:                  -8.848
REMARK INTRA:                  -1.357
REMARK UNBOUND:                -1.357
REMARK VINA RESULT:    -7.501      0.000      0.000
REMARK INTER + INTRA:         -12.989
REMARK INTER:                  -9.255
REMARK INTRA:                  -3.734
REMARK UNBOUND:                -3.734
REMARK SMILES C[C@@H](C(=O)Nc1ccc(Cl)cc1)[C@H]1CC[C@@H](c2ccnc3ccc(F)cc32)CC1
REMARK SMILES IDX 2 1 1 2 13 3 14 4 29 5 15 6 28 7 16 8 17 9 18 10 27 11 19 12
REMARK SMILES IDX 26 13 21 14 20 15 24 16 22 17 23 18 25 19 3 20 4 21 5 22
REMARK SMILES IDX 6 24 7 25 12 26 8 27 11 28 9 29 10 30
REMARK H PARENT 5 23
ROOT
ATOM      1  C   UNL     1     134.478 137.192 151.735  1.00  0.00     0.079 C 
ATOM      2  C   UNL     1     134.914 135.743 151.773  1.00  0.00     0.018 C 
ENDROOT
BRANCH   1   3
ATOM      3  C   UNL     1     132.997 137.381 151.906  1.00  0.00     0.001 C 
ATOM      4  C   UNL     1     132.634 138.735 152.377  1.00  0.00     0.005 C 
ATOM      5  C   UNL     1     132.404 136.220 152.666  1.00  0.00     0.005 C 
ATOM      6  C   UNL     1     132.504 138.908 153.878  1.00  0.00     0.009 C 
ATOM      7  C   UNL     1     132.432 136.490 154.188  1.00  0.00     0.009 C 
ATOM      8  C   UNL     1     131.724 137.760 154.408  1.00  0.00     0.020 C 
BRANCH   8   9
ATOM      9  C   UNL     1     130.905 137.945 155.606  1.00  0.00    -0.034 A 
ATOM     10  C   UNL     1     131.415 138.283 156.865  1.00  0.00     0.025 A 
ATOM     11  C   UNL     1     129.509 137.819 155.582  1.00  0.00     0.007 A 
ATOM     12  C   UNL     1     130.621 138.473 157.971  1.00  0.00     0.112 A 
ATOM     13  C   UNL     1     128.828 137.483 154.434  1.00  0.00     0.049 A 
ATOM     14  C   UNL     1     128.740 138.018 156.714  1.00  0.00     0.071 A 
ATOM     15  N   UNL     1     129.284 138.343 157.901  1.00  0.00    -0.256 NA
ATOM     16  C   UNL     1     127.475 137.343 154.364  1.00  0.00     0.123 A 
ATOM     17  C   UNL     1     127.363 137.885 156.681  1.00  0.00     0.032 A 
ATOM     18  C   UNL     1     126.719 137.545 155.501  1.00  0.00     0.041 A 
ATOM     19  F   UNL     1     126.864 137.010 153.204  1.00  0.00    -0.207 F 
ENDBRANCH   8   9
ENDBRANCH   1   3
BRANCH   1  20
ATOM     20  C   UNL     1     135.019 137.789 150.498  1.00  0.00     0.227 C 
ATOM     21  O   UNL     1     135.651 138.870 150.561  1.00  0.00    -0.274 OA
ATOM     22  N   UNL     1     134.816 137.133 149.259  1.00  0.00    -0.326 N 
ATOM     23  H   UNL     1     134.274 136.234 149.309  1.00  0.00     0.169 HD
BRANCH  22  24
ATOM     24  C   UNL     1     135.257 137.559 148.007  1.00  0.00     0.041 A 
ATOM     25  C   UNL     1     136.427 137.217 147.385  1.00  0.00     0.027 A 
ATOM     26  C   UNL     1     134.435 138.437 147.283  1.00  0.00     0.027 A 
ATOM     27  C   UNL     1     136.782 137.701 146.120  1.00  0.00     0.022 A 
ATOM     28  C   UNL     1     134.773 138.913 146.048  1.00  0.00     0.022 A 
ATOM     29  C   UNL     1     135.957 138.555 145.440  1.00  0.00     0.041 A 
ATOM     30  Cl  UNL     1     136.341 139.188 143.872  1.00  0.00    -0.084 Cl
ENDBRANCH  22  24
ENDBRANCH   1  20
TORSDOF 4
ENDMDL
