MODEL 1
REMARK VINA RESULT:    -7.282      0.000      0.000
REMARK INTER + INTRA:         -10.470
REMARK INTER:                  -8.984
REMARK INTRA:                  -1.486
REMARK UNBOUND:                -1.486
REMARK VINA RESULT:    -7.501      0.000      0.000
REMARK INTER + INTRA:         -12.989
REMARK INTER:                  -9.255
REMARK INTRA:                  -3.734
REMARK UNBOUND:                -3.734
REMARK SMILES C[C@@H](C(=O)Nc1ccc(Cl)cc1)[C@H]1CC[C@@H](c2ccnc3ccc(F)cc32)CC1
REMARK SMILES IDX 2 1 1 2 13 3 14 4 29 5 15 6 28 7 16 8 17 9 18 10 27 11 19 12
REMARK SMILES IDX 26 13 21 14 20 15 24 16 22 17 23 18 25 19 3 20 4 21 5 22
REMARK SMILES IDX 6 24 7 25 12 26 8 27 11 28 9 29 10 30
REMARK H PARENT 5 23
ROOT
ATOM      1  C   UNL     1     133.628 138.618 153.841  1.00  0.00     0.079 C 
ATOM      2  C   UNL     1     134.289 139.552 154.832  1.00  0.00     0.018 C 
ENDROOT
BRANCH   1   3
ATOM      3  C   UNL     1     133.315 139.263 152.520  1.00  0.00     0.001 C 
ATOM      4  C   UNL     1     132.609 138.360 151.586  1.00  0.00     0.005 C 
ATOM      5  C   UNL     1     134.532 139.975 151.982  1.00  0.00     0.005 C 
ATOM      6  C   UNL     1     133.482 137.572 150.629  1.00  0.00     0.009 C 
ATOM      7  C   UNL     1     135.382 139.022 151.111  1.00  0.00     0.009 C 
ATOM      8  C   UNL     1     134.496 138.498 150.061  1.00  0.00     0.020 C 
BRANCH   8   9
ATOM      9  C   UNL     1     135.017 138.250 148.717  1.00  0.00    -0.034 A 
ATOM     10  C   UNL     1     136.042 137.344 148.424  1.00  0.00     0.025 A 
ATOM     11  C   UNL     1     134.501 138.898 147.585  1.00  0.00     0.007 A 
ATOM     12  C   UNL     1     136.499 137.114 147.148  1.00  0.00     0.112 A 
ATOM     13  C   UNL     1     133.492 139.830 147.678  1.00  0.00     0.049 A 
ATOM     14  C   UNL     1     134.983 138.641 146.315  1.00  0.00     0.071 A 
ATOM     15  N   UNL     1     135.973 137.758 146.091  1.00  0.00    -0.256 NA
ATOM     16  C   UNL     1     132.964 140.489 146.609  1.00  0.00     0.123 A 
ATOM     17  C   UNL     1     134.472 139.291 145.207  1.00  0.00     0.032 A 
ATOM     18  C   UNL     1     133.454 140.223 145.346  1.00  0.00     0.041 A 
ATOM     19  F   UNL     1     131.973 141.396 146.765  1.00  0.00    -0.207 F 
ENDBRANCH   8   9
ENDBRANCH   1   3
BRANCH   1  20
ATOM     20  C   UNL     1     132.456 138.017 154.507  1.00  0.00     0.227 C 
ATOM     21  O   UNL     1     132.551 136.870 155.005  1.00  0.00    -0.274 OA
ATOM     22  N   UNL     1     131.241 138.742 154.572  1.00  0.00    -0.326 N 
ATOM     23  H   UNL     1     131.261 139.694 154.126  1.00  0.00     0.169 HD
BRANCH  22  24
ATOM     24  C   UNL     1     130.049 138.322 155.160  1.00  0.00     0.041 A 
ATOM     25  C   UNL     1     129.660 138.508 156.459  1.00  0.00     0.027 A 
ATOM     26  C   UNL     1     129.128 137.629 154.358  1.00  0.00     0.027 A 
ATOM     27  C   UNL     1     128.436 138.046 156.956  1.00  0.00     0.022 A 
ATOM     28  C   UNL     1     127.932 137.176 154.835  1.00  0.00     0.022 A 
ATOM     29  C   UNL     1     127.560 137.374 156.148  1.00  0.00     0.041 A 
ATOM     30  Cl  UNL     1     126.030 136.777 156.705  1.00  0.00    -0.084 Cl
ENDBRANCH  22  24
ENDBRANCH   1  20
TORSDOF 4
ENDMDL
