MODEL 1
REMARK VINA RESULT:    -7.156      0.000      0.000
REMARK INTER + INTRA:         -10.191
REMARK INTER:                  -8.830
REMARK INTRA:                  -1.362
REMARK UNBOUND:                -1.362
REMARK VINA RESULT:    -7.501      0.000      0.000
REMARK INTER + INTRA:         -12.989
REMARK INTER:                  -9.255
REMARK INTRA:                  -3.734
REMARK UNBOUND:                -3.734
REMARK SMILES C[C@@H](C(=O)Nc1ccc(Cl)cc1)[C@H]1CC[C@@H](c2ccnc3ccc(F)cc32)CC1
REMARK SMILES IDX 2 1 1 2 13 3 14 4 29 5 15 6 28 7 16 8 17 9 18 10 27 11 19 12
REMARK SMILES IDX 26 13 21 14 20 15 24 16 22 17 23 18 25 19 3 20 4 21 5 22
REMARK SMILES IDX 6 24 7 25 12 26 8 27 11 28 9 29 10 30
REMARK H PARENT 5 23
ROOT
ATOM      1  C   UNL     1     134.483 137.196 151.721  1.00  0.00     0.079 C 
ATOM      2  C   UNL     1     134.917 135.747 151.755  1.00  0.00     0.018 C 
ENDROOT
BRANCH   1   3
ATOM      3  C   UNL     1     133.002 137.387 151.894  1.00  0.00     0.001 C 
ATOM      4  C   UNL     1     132.643 138.740 152.369  1.00  0.00     0.005 C 
ATOM      5  C   UNL     1     132.409 136.224 152.651  1.00  0.00     0.005 C 
ATOM      6  C   UNL     1     132.515 138.909 153.871  1.00  0.00     0.009 C 
ATOM      7  C   UNL     1     132.439 136.490 154.173  1.00  0.00     0.009 C 
ATOM      8  C   UNL     1     131.733 137.760 154.399  1.00  0.00     0.020 C 
BRANCH   8   9
ATOM      9  C   UNL     1     130.916 137.943 155.598  1.00  0.00    -0.034 A 
ATOM     10  C   UNL     1     131.428 138.279 156.857  1.00  0.00     0.025 A 
ATOM     11  C   UNL     1     129.520 137.817 155.577  1.00  0.00     0.007 A 
ATOM     12  C   UNL     1     130.635 138.466 157.964  1.00  0.00     0.112 A 
ATOM     13  C   UNL     1     128.838 137.482 154.428  1.00  0.00     0.049 A 
ATOM     14  C   UNL     1     128.753 138.013 156.710  1.00  0.00     0.071 A 
ATOM     15  N   UNL     1     129.298 138.336 157.897  1.00  0.00    -0.256 NA
ATOM     16  C   UNL     1     127.485 137.341 154.361  1.00  0.00     0.123 A 
ATOM     17  C   UNL     1     127.376 137.879 156.679  1.00  0.00     0.032 A 
ATOM     18  C   UNL     1     126.730 137.541 155.499  1.00  0.00     0.041 A 
ATOM     19  F   UNL     1     126.872 137.010 153.201  1.00  0.00    -0.207 F 
ENDBRANCH   8   9
ENDBRANCH   1   3
BRANCH   1  20
ATOM     20  C   UNL     1     135.024 137.796 150.484  1.00  0.00     0.227 C 
ATOM     21  O   UNL     1     135.679 138.862 150.552  1.00  0.00    -0.274 OA
ATOM     22  N   UNL     1     134.792 137.158 149.240  1.00  0.00    -0.326 N 
ATOM     23  H   UNL     1     134.232 136.270 149.287  1.00  0.00     0.169 HD
BRANCH  22  24
ATOM     24  C   UNL     1     135.229 137.589 147.988  1.00  0.00     0.041 A 
ATOM     25  C   UNL     1     136.406 137.265 147.369  1.00  0.00     0.027 A 
ATOM     26  C   UNL     1     134.393 138.451 147.260  1.00  0.00     0.027 A 
ATOM     27  C   UNL     1     136.755 137.752 146.104  1.00  0.00     0.022 A 
ATOM     28  C   UNL     1     134.726 138.930 146.025  1.00  0.00     0.022 A 
ATOM     29  C   UNL     1     135.918 138.591 145.420  1.00  0.00     0.041 A 
ATOM     30  Cl  UNL     1     136.294 139.227 143.851  1.00  0.00    -0.084 Cl
ENDBRANCH  22  24
ENDBRANCH   1  20
TORSDOF 4
ENDMDL
