MODEL 1
REMARK VINA RESULT:    -7.292      0.000      0.000
REMARK INTER + INTRA:         -10.481
REMARK INTER:                  -8.997
REMARK INTRA:                  -1.484
REMARK UNBOUND:                -1.484
REMARK VINA RESULT:    -7.501      0.000      0.000
REMARK INTER + INTRA:         -12.989
REMARK INTER:                  -9.255
REMARK INTRA:                  -3.734
REMARK UNBOUND:                -3.734
REMARK SMILES C[C@@H](C(=O)Nc1ccc(Cl)cc1)[C@H]1CC[C@@H](c2ccnc3ccc(F)cc32)CC1
REMARK SMILES IDX 2 1 1 2 13 3 14 4 29 5 15 6 28 7 16 8 17 9 18 10 27 11 19 12
REMARK SMILES IDX 26 13 21 14 20 15 24 16 22 17 23 18 25 19 3 20 4 21 5 22
REMARK SMILES IDX 6 24 7 25 12 26 8 27 11 28 9 29 10 30
REMARK H PARENT 5 23
ROOT
ATOM      1  C   UNL     1     133.625 138.619 153.846  1.00  0.00     0.079 C 
ATOM      2  C   UNL     1     134.288 139.556 154.833  1.00  0.00     0.018 C 
ENDROOT
BRANCH   1   3
ATOM      3  C   UNL     1     133.308 139.260 152.524  1.00  0.00     0.001 C 
ATOM      4  C   UNL     1     132.606 138.351 151.592  1.00  0.00     0.005 C 
ATOM      5  C   UNL     1     134.522 139.975 151.984  1.00  0.00     0.005 C 
ATOM      6  C   UNL     1     133.483 137.565 150.637  1.00  0.00     0.009 C 
ATOM      7  C   UNL     1     135.377 139.025 151.115  1.00  0.00     0.009 C 
ATOM      8  C   UNL     1     134.492 138.495 150.067  1.00  0.00     0.020 C 
BRANCH   8   9
ATOM      9  C   UNL     1     135.014 138.246 148.723  1.00  0.00    -0.034 A 
ATOM     10  C   UNL     1     136.043 137.344 148.432  1.00  0.00     0.025 A 
ATOM     11  C   UNL     1     134.496 138.890 147.590  1.00  0.00     0.007 A 
ATOM     12  C   UNL     1     136.500 137.112 147.156  1.00  0.00     0.112 A 
ATOM     13  C   UNL     1     133.484 139.820 147.681  1.00  0.00     0.049 A 
ATOM     14  C   UNL     1     134.979 138.633 146.321  1.00  0.00     0.071 A 
ATOM     15  N   UNL     1     135.972 137.753 146.098  1.00  0.00    -0.256 NA
ATOM     16  C   UNL     1     132.954 140.475 146.611  1.00  0.00     0.123 A 
ATOM     17  C   UNL     1     134.466 139.279 145.211  1.00  0.00     0.032 A 
ATOM     18  C   UNL     1     133.445 140.208 145.349  1.00  0.00     0.041 A 
ATOM     19  F   UNL     1     131.959 141.379 146.766  1.00  0.00    -0.207 F 
ENDBRANCH   8   9
ENDBRANCH   1   3
BRANCH   1  20
ATOM     20  C   UNL     1     132.454 138.019 154.517  1.00  0.00     0.227 C 
ATOM     21  O   UNL     1     132.555 136.880 155.031  1.00  0.00    -0.274 OA
ATOM     22  N   UNL     1     131.235 138.739 154.568  1.00  0.00    -0.326 N 
ATOM     23  H   UNL     1     131.250 139.684 154.109  1.00  0.00     0.169 HD
BRANCH  22  24
ATOM     24  C   UNL     1     130.043 138.319 155.158  1.00  0.00     0.041 A 
ATOM     25  C   UNL     1     129.653 138.512 156.456  1.00  0.00     0.027 A 
ATOM     26  C   UNL     1     129.124 137.620 154.360  1.00  0.00     0.027 A 
ATOM     27  C   UNL     1     128.430 138.050 156.956  1.00  0.00     0.022 A 
ATOM     28  C   UNL     1     127.928 137.166 154.840  1.00  0.00     0.022 A 
ATOM     29  C   UNL     1     127.556 137.371 156.151  1.00  0.00     0.041 A 
ATOM     30  Cl  UNL     1     126.027 136.774 156.712  1.00  0.00    -0.084 Cl
ENDBRANCH  22  24
ENDBRANCH   1  20
TORSDOF 4
ENDMDL
