MODEL 1
REMARK VINA RESULT:    -7.170      0.000      0.000
REMARK INTER + INTRA:         -10.204
REMARK INTER:                  -8.847
REMARK INTRA:                  -1.357
REMARK UNBOUND:                -1.357
REMARK VINA RESULT:    -7.501      0.000      0.000
REMARK INTER + INTRA:         -12.989
REMARK INTER:                  -9.255
REMARK INTRA:                  -3.734
REMARK UNBOUND:                -3.734
REMARK SMILES C[C@@H](C(=O)Nc1ccc(Cl)cc1)[C@H]1CC[C@@H](c2ccnc3ccc(F)cc32)CC1
REMARK SMILES IDX 2 1 1 2 13 3 14 4 29 5 15 6 28 7 16 8 17 9 18 10 27 11 19 12
REMARK SMILES IDX 26 13 21 14 20 15 24 16 22 17 23 18 25 19 3 20 4 21 5 22
REMARK SMILES IDX 6 24 7 25 12 26 8 27 11 28 9 29 10 30
REMARK H PARENT 5 23
ROOT
ATOM      1  C   UNL     1     134.483 137.190 151.739  1.00  0.00     0.079 C 
ATOM      2  C   UNL     1     134.917 135.740 151.778  1.00  0.00     0.018 C 
ENDROOT
BRANCH   1   3
ATOM      3  C   UNL     1     133.002 137.382 151.908  1.00  0.00     0.001 C 
ATOM      4  C   UNL     1     132.643 138.736 152.381  1.00  0.00     0.005 C 
ATOM      5  C   UNL     1     132.407 136.221 152.666  1.00  0.00     0.005 C 
ATOM      6  C   UNL     1     132.511 138.907 153.882  1.00  0.00     0.009 C 
ATOM      7  C   UNL     1     132.433 136.489 154.188  1.00  0.00     0.009 C 
ATOM      8  C   UNL     1     131.728 137.760 154.410  1.00  0.00     0.020 C 
BRANCH   8   9
ATOM      9  C   UNL     1     130.908 137.945 155.607  1.00  0.00    -0.034 A 
ATOM     10  C   UNL     1     131.418 138.283 156.866  1.00  0.00     0.025 A 
ATOM     11  C   UNL     1     129.512 137.820 155.583  1.00  0.00     0.007 A 
ATOM     12  C   UNL     1     130.622 138.473 157.972  1.00  0.00     0.112 A 
ATOM     13  C   UNL     1     128.832 137.483 154.434  1.00  0.00     0.049 A 
ATOM     14  C   UNL     1     128.742 138.019 156.714  1.00  0.00     0.071 A 
ATOM     15  N   UNL     1     129.286 138.343 157.901  1.00  0.00    -0.256 NA
ATOM     16  C   UNL     1     127.479 137.343 154.363  1.00  0.00     0.123 A 
ATOM     17  C   UNL     1     127.366 137.885 156.680  1.00  0.00     0.032 A 
ATOM     18  C   UNL     1     126.722 137.545 155.499  1.00  0.00     0.041 A 
ATOM     19  F   UNL     1     126.869 137.010 153.202  1.00  0.00    -0.207 F 
ENDBRANCH   8   9
ENDBRANCH   1   3
BRANCH   1  20
ATOM     20  C   UNL     1     135.027 137.785 150.502  1.00  0.00     0.227 C 
ATOM     21  O   UNL     1     135.661 138.865 150.564  1.00  0.00    -0.274 OA
ATOM     22  N   UNL     1     134.822 137.129 149.263  1.00  0.00    -0.326 N 
ATOM     23  H   UNL     1     134.279 136.231 149.313  1.00  0.00     0.169 HD
BRANCH  22  24
ATOM     24  C   UNL     1     135.266 137.553 148.011  1.00  0.00     0.041 A 
ATOM     25  C   UNL     1     136.438 137.212 147.392  1.00  0.00     0.027 A 
ATOM     26  C   UNL     1     134.442 138.428 147.283  1.00  0.00     0.027 A 
ATOM     27  C   UNL     1     136.794 137.694 146.127  1.00  0.00     0.022 A 
ATOM     28  C   UNL     1     134.783 138.902 146.048  1.00  0.00     0.022 A 
ATOM     29  C   UNL     1     135.969 138.545 145.443  1.00  0.00     0.041 A 
ATOM     30  Cl  UNL     1     136.354 139.176 143.874  1.00  0.00    -0.084 Cl
ENDBRANCH  22  24
ENDBRANCH   1  20
TORSDOF 4
ENDMDL
