MODEL 1
REMARK VINA RESULT:    -7.161      0.000      0.000
REMARK INTER + INTRA:         -10.190
REMARK INTER:                  -8.835
REMARK INTRA:                  -1.355
REMARK UNBOUND:                -1.355
REMARK VINA RESULT:    -7.501      0.000      0.000
REMARK INTER + INTRA:         -12.989
REMARK INTER:                  -9.255
REMARK INTRA:                  -3.734
REMARK UNBOUND:                -3.734
REMARK SMILES C[C@@H](C(=O)Nc1ccc(Cl)cc1)[C@H]1CC[C@@H](c2ccnc3ccc(F)cc32)CC1
REMARK SMILES IDX 2 1 1 2 13 3 14 4 29 5 15 6 28 7 16 8 17 9 18 10 27 11 19 12
REMARK SMILES IDX 26 13 21 14 20 15 24 16 22 17 23 18 25 19 3 20 4 21 5 22
REMARK SMILES IDX 6 24 7 25 12 26 8 27 11 28 9 29 10 30
REMARK H PARENT 5 23
ROOT
ATOM      1  C   UNL     1     134.491 137.188 151.732  1.00  0.00     0.079 C 
ATOM      2  C   UNL     1     134.920 135.737 151.768  1.00  0.00     0.018 C 
ENDROOT
BRANCH   1   3
ATOM      3  C   UNL     1     133.011 137.384 151.901  1.00  0.00     0.001 C 
ATOM      4  C   UNL     1     132.656 138.738 152.378  1.00  0.00     0.005 C 
ATOM      5  C   UNL     1     132.411 136.223 152.656  1.00  0.00     0.005 C 
ATOM      6  C   UNL     1     132.525 138.906 153.880  1.00  0.00     0.009 C 
ATOM      7  C   UNL     1     132.439 136.487 154.179  1.00  0.00     0.009 C 
ATOM      8  C   UNL     1     131.737 137.760 154.404  1.00  0.00     0.020 C 
BRANCH   8   9
ATOM      9  C   UNL     1     130.919 137.944 155.602  1.00  0.00    -0.034 A 
ATOM     10  C   UNL     1     131.428 138.282 156.861  1.00  0.00     0.025 A 
ATOM     11  C   UNL     1     129.522 137.818 155.578  1.00  0.00     0.007 A 
ATOM     12  C   UNL     1     130.633 138.471 157.967  1.00  0.00     0.112 A 
ATOM     13  C   UNL     1     128.842 137.481 154.429  1.00  0.00     0.049 A 
ATOM     14  C   UNL     1     128.753 138.016 156.710  1.00  0.00     0.071 A 
ATOM     15  N   UNL     1     129.297 138.340 157.897  1.00  0.00    -0.256 NA
ATOM     16  C   UNL     1     127.489 137.340 154.359  1.00  0.00     0.123 A 
ATOM     17  C   UNL     1     127.377 137.882 156.676  1.00  0.00     0.032 A 
ATOM     18  C   UNL     1     126.733 137.542 155.496  1.00  0.00     0.041 A 
ATOM     19  F   UNL     1     126.878 137.007 153.199  1.00  0.00    -0.207 F 
ENDBRANCH   8   9
ENDBRANCH   1   3
BRANCH   1  20
ATOM     20  C   UNL     1     135.037 137.784 150.496  1.00  0.00     0.227 C 
ATOM     21  O   UNL     1     135.689 138.852 150.562  1.00  0.00    -0.274 OA
ATOM     22  N   UNL     1     134.814 137.140 149.254  1.00  0.00    -0.326 N 
ATOM     23  H   UNL     1     134.257 136.251 149.300  1.00  0.00     0.169 HD
BRANCH  22  24
ATOM     24  C   UNL     1     135.256 137.567 148.002  1.00  0.00     0.041 A 
ATOM     25  C   UNL     1     136.432 137.234 147.385  1.00  0.00     0.027 A 
ATOM     26  C   UNL     1     134.428 138.434 147.271  1.00  0.00     0.027 A 
ATOM     27  C   UNL     1     136.787 137.718 146.121  1.00  0.00     0.022 A 
ATOM     28  C   UNL     1     134.767 138.910 146.037  1.00  0.00     0.022 A 
ATOM     29  C   UNL     1     135.957 138.562 145.434  1.00  0.00     0.041 A 
ATOM     30  Cl  UNL     1     136.341 139.193 143.866  1.00  0.00    -0.084 Cl
ENDBRANCH  22  24
ENDBRANCH   1  20
TORSDOF 4
ENDMDL
