MODEL 1
REMARK VINA RESULT:    -7.295      0.000      0.000
REMARK INTER + INTRA:         -10.477
REMARK INTER:                  -9.001
REMARK INTRA:                  -1.476
REMARK UNBOUND:                -1.476
REMARK VINA RESULT:    -7.501      0.000      0.000
REMARK INTER + INTRA:         -12.989
REMARK INTER:                  -9.255
REMARK INTRA:                  -3.734
REMARK UNBOUND:                -3.734
REMARK SMILES C[C@@H](C(=O)Nc1ccc(Cl)cc1)[C@H]1CC[C@@H](c2ccnc3ccc(F)cc32)CC1
REMARK SMILES IDX 2 1 1 2 13 3 14 4 29 5 15 6 28 7 16 8 17 9 18 10 27 11 19 12
REMARK SMILES IDX 26 13 21 14 20 15 24 16 22 17 23 18 25 19 3 20 4 21 5 22
REMARK SMILES IDX 6 24 7 25 12 26 8 27 11 28 9 29 10 30
REMARK H PARENT 5 23
ROOT
ATOM      1  C   UNL     1     133.620 138.614 153.845  1.00  0.00     0.079 C 
ATOM      2  C   UNL     1     134.283 139.556 154.827  1.00  0.00     0.018 C 
ENDROOT
BRANCH   1   3
ATOM      3  C   UNL     1     133.300 139.250 152.521  1.00  0.00     0.001 C 
ATOM      4  C   UNL     1     132.605 138.334 151.591  1.00  0.00     0.005 C 
ATOM      5  C   UNL     1     134.510 139.972 151.981  1.00  0.00     0.005 C 
ATOM      6  C   UNL     1     133.489 137.551 150.638  1.00  0.00     0.009 C 
ATOM      7  C   UNL     1     135.372 139.025 151.115  1.00  0.00     0.009 C 
ATOM      8  C   UNL     1     134.492 138.487 150.067  1.00  0.00     0.020 C 
BRANCH   8   9
ATOM      9  C   UNL     1     135.018 138.238 148.725  1.00  0.00    -0.034 A 
ATOM     10  C   UNL     1     136.047 137.335 148.436  1.00  0.00     0.025 A 
ATOM     11  C   UNL     1     134.502 138.882 147.590  1.00  0.00     0.007 A 
ATOM     12  C   UNL     1     136.508 137.104 147.161  1.00  0.00     0.112 A 
ATOM     13  C   UNL     1     133.491 139.812 147.679  1.00  0.00     0.049 A 
ATOM     14  C   UNL     1     134.989 138.625 146.322  1.00  0.00     0.071 A 
ATOM     15  N   UNL     1     135.982 137.745 146.101  1.00  0.00    -0.256 NA
ATOM     16  C   UNL     1     132.964 140.467 146.608  1.00  0.00     0.123 A 
ATOM     17  C   UNL     1     134.478 139.272 145.211  1.00  0.00     0.032 A 
ATOM     18  C   UNL     1     133.458 140.201 145.347  1.00  0.00     0.041 A 
ATOM     19  F   UNL     1     131.968 141.372 146.760  1.00  0.00    -0.207 F 
ENDBRANCH   8   9
ENDBRANCH   1   3
BRANCH   1  20
ATOM     20  C   UNL     1     132.451 138.016 154.520  1.00  0.00     0.227 C 
ATOM     21  O   UNL     1     132.560 136.890 155.059  1.00  0.00    -0.274 OA
ATOM     22  N   UNL     1     131.223 138.723 154.548  1.00  0.00    -0.326 N 
ATOM     23  H   UNL     1     131.232 139.659 154.069  1.00  0.00     0.169 HD
BRANCH  22  24
ATOM     24  C   UNL     1     130.032 138.304 155.138  1.00  0.00     0.041 A 
ATOM     25  C   UNL     1     129.643 138.496 156.436  1.00  0.00     0.027 A 
ATOM     26  C   UNL     1     129.112 137.604 154.340  1.00  0.00     0.027 A 
ATOM     27  C   UNL     1     128.420 138.033 156.936  1.00  0.00     0.022 A 
ATOM     28  C   UNL     1     127.917 137.150 154.820  1.00  0.00     0.022 A 
ATOM     29  C   UNL     1     127.545 137.355 156.131  1.00  0.00     0.041 A 
ATOM     30  Cl  UNL     1     126.017 136.758 156.692  1.00  0.00    -0.084 Cl
ENDBRANCH  22  24
ENDBRANCH   1  20
TORSDOF 4
ENDMDL
