MODEL 1
REMARK VINA RESULT:    -7.161      0.000      0.000
REMARK INTER + INTRA:         -10.190
REMARK INTER:                  -8.835
REMARK INTRA:                  -1.355
REMARK UNBOUND:                -1.355
REMARK VINA RESULT:    -7.501      0.000      0.000
REMARK INTER + INTRA:         -12.989
REMARK INTER:                  -9.255
REMARK INTRA:                  -3.734
REMARK UNBOUND:                -3.734
REMARK SMILES C[C@@H](C(=O)Nc1ccc(Cl)cc1)[C@H]1CC[C@@H](c2ccnc3ccc(F)cc32)CC1
REMARK SMILES IDX 2 1 1 2 13 3 14 4 29 5 15 6 28 7 16 8 17 9 18 10 27 11 19 12
REMARK SMILES IDX 26 13 21 14 20 15 24 16 22 17 23 18 25 19 3 20 4 21 5 22
REMARK SMILES IDX 6 24 7 25 12 26 8 27 11 28 9 29 10 30
REMARK H PARENT 5 23
ROOT
ATOM      1  C   UNL     1     134.484 137.188 151.735  1.00  0.00     0.079 C 
ATOM      2  C   UNL     1     134.917 135.738 151.769  1.00  0.00     0.018 C 
ENDROOT
BRANCH   1   3
ATOM      3  C   UNL     1     133.003 137.380 151.905  1.00  0.00     0.001 C 
ATOM      4  C   UNL     1     132.644 138.734 152.377  1.00  0.00     0.005 C 
ATOM      5  C   UNL     1     132.408 136.219 152.663  1.00  0.00     0.005 C 
ATOM      6  C   UNL     1     132.513 138.906 153.878  1.00  0.00     0.009 C 
ATOM      7  C   UNL     1     132.435 136.488 154.185  1.00  0.00     0.009 C 
ATOM      8  C   UNL     1     131.730 137.759 154.407  1.00  0.00     0.020 C 
BRANCH   8   9
ATOM      9  C   UNL     1     130.911 137.945 155.604  1.00  0.00    -0.034 A 
ATOM     10  C   UNL     1     131.420 138.287 156.862  1.00  0.00     0.025 A 
ATOM     11  C   UNL     1     129.515 137.816 155.581  1.00  0.00     0.007 A 
ATOM     12  C   UNL     1     130.625 138.478 157.968  1.00  0.00     0.112 A 
ATOM     13  C   UNL     1     128.835 137.474 154.434  1.00  0.00     0.049 A 
ATOM     14  C   UNL     1     128.745 138.015 156.713  1.00  0.00     0.071 A 
ATOM     15  N   UNL     1     129.289 138.344 157.899  1.00  0.00    -0.256 NA
ATOM     16  C   UNL     1     127.482 137.331 154.365  1.00  0.00     0.123 A 
ATOM     17  C   UNL     1     127.369 137.878 156.680  1.00  0.00     0.032 A 
ATOM     18  C   UNL     1     126.726 137.533 155.501  1.00  0.00     0.041 A 
ATOM     19  F   UNL     1     126.872 136.993 153.205  1.00  0.00    -0.207 F 
ENDBRANCH   8   9
ENDBRANCH   1   3
BRANCH   1  20
ATOM     20  C   UNL     1     135.028 137.787 150.500  1.00  0.00     0.227 C 
ATOM     21  O   UNL     1     135.668 138.863 150.567  1.00  0.00    -0.274 OA
ATOM     22  N   UNL     1     134.818 137.138 149.258  1.00  0.00    -0.326 N 
ATOM     23  H   UNL     1     134.270 136.243 149.305  1.00  0.00     0.169 HD
BRANCH  22  24
ATOM     24  C   UNL     1     135.261 137.567 148.007  1.00  0.00     0.041 A 
ATOM     25  C   UNL     1     136.433 137.229 147.387  1.00  0.00     0.027 A 
ATOM     26  C   UNL     1     134.437 138.443 147.282  1.00  0.00     0.027 A 
ATOM     27  C   UNL     1     136.789 137.716 146.124  1.00  0.00     0.022 A 
ATOM     28  C   UNL     1     134.776 138.922 146.049  1.00  0.00     0.022 A 
ATOM     29  C   UNL     1     135.963 138.568 145.443  1.00  0.00     0.041 A 
ATOM     30  Cl  UNL     1     136.348 139.204 143.876  1.00  0.00    -0.084 Cl
ENDBRANCH  22  24
ENDBRANCH   1  20
TORSDOF 4
ENDMDL
