MODEL 1
REMARK VINA RESULT:    -7.159      0.000      0.000
REMARK INTER + INTRA:         -10.195
REMARK INTER:                  -8.834
REMARK INTRA:                  -1.361
REMARK UNBOUND:                -1.361
REMARK VINA RESULT:    -7.501      0.000      0.000
REMARK INTER + INTRA:         -12.989
REMARK INTER:                  -9.255
REMARK INTRA:                  -3.734
REMARK UNBOUND:                -3.734
REMARK SMILES C[C@@H](C(=O)Nc1ccc(Cl)cc1)[C@H]1CC[C@@H](c2ccnc3ccc(F)cc32)CC1
REMARK SMILES IDX 2 1 1 2 13 3 14 4 29 5 15 6 28 7 16 8 17 9 18 10 27 11 19 12
REMARK SMILES IDX 26 13 21 14 20 15 24 16 22 17 23 18 25 19 3 20 4 21 5 22
REMARK SMILES IDX 6 24 7 25 12 26 8 27 11 28 9 29 10 30
REMARK H PARENT 5 23
ROOT
ATOM      1  C   UNL     1     134.486 137.184 151.730  1.00  0.00     0.079 C 
ATOM      2  C   UNL     1     134.918 135.734 151.767  1.00  0.00     0.018 C 
ENDROOT
BRANCH   1   3
ATOM      3  C   UNL     1     133.006 137.378 151.902  1.00  0.00     0.001 C 
ATOM      4  C   UNL     1     132.649 138.732 152.376  1.00  0.00     0.005 C 
ATOM      5  C   UNL     1     132.410 136.217 152.661  1.00  0.00     0.005 C 
ATOM      6  C   UNL     1     132.520 138.903 153.878  1.00  0.00     0.009 C 
ATOM      7  C   UNL     1     132.440 136.485 154.183  1.00  0.00     0.009 C 
ATOM      8  C   UNL     1     131.736 137.756 154.406  1.00  0.00     0.020 C 
BRANCH   8   9
ATOM      9  C   UNL     1     130.919 137.942 155.605  1.00  0.00    -0.034 A 
ATOM     10  C   UNL     1     131.431 138.280 156.863  1.00  0.00     0.025 A 
ATOM     11  C   UNL     1     129.522 137.817 155.583  1.00  0.00     0.007 A 
ATOM     12  C   UNL     1     130.637 138.470 157.970  1.00  0.00     0.112 A 
ATOM     13  C   UNL     1     128.840 137.480 154.435  1.00  0.00     0.049 A 
ATOM     14  C   UNL     1     128.755 138.016 156.716  1.00  0.00     0.071 A 
ATOM     15  N   UNL     1     129.300 138.341 157.902  1.00  0.00    -0.256 NA
ATOM     16  C   UNL     1     127.488 137.341 154.367  1.00  0.00     0.123 A 
ATOM     17  C   UNL     1     127.378 137.883 156.684  1.00  0.00     0.032 A 
ATOM     18  C   UNL     1     126.733 137.544 155.505  1.00  0.00     0.041 A 
ATOM     19  F   UNL     1     126.875 137.008 153.207  1.00  0.00    -0.207 F 
ENDBRANCH   8   9
ENDBRANCH   1   3
BRANCH   1  20
ATOM     20  C   UNL     1     135.029 137.781 150.493  1.00  0.00     0.227 C 
ATOM     21  O   UNL     1     135.690 138.844 150.560  1.00  0.00    -0.274 OA
ATOM     22  N   UNL     1     134.793 137.144 149.250  1.00  0.00    -0.326 N 
ATOM     23  H   UNL     1     134.228 136.260 149.297  1.00  0.00     0.169 HD
BRANCH  22  24
ATOM     24  C   UNL     1     135.230 137.573 147.997  1.00  0.00     0.041 A 
ATOM     25  C   UNL     1     136.398 137.231 147.371  1.00  0.00     0.027 A 
ATOM     26  C   UNL     1     134.406 138.452 147.277  1.00  0.00     0.027 A 
ATOM     27  C   UNL     1     136.749 137.718 146.106  1.00  0.00     0.022 A 
ATOM     28  C   UNL     1     134.740 138.930 146.042  1.00  0.00     0.022 A 
ATOM     29  C   UNL     1     135.922 138.574 145.430  1.00  0.00     0.041 A 
ATOM     30  Cl  UNL     1     136.302 139.209 143.861  1.00  0.00    -0.084 Cl
ENDBRANCH  22  24
ENDBRANCH   1  20
TORSDOF 4
ENDMDL
