MODEL 1
REMARK VINA RESULT:    -7.287      0.000      0.000
REMARK INTER + INTRA:         -10.476
REMARK INTER:                  -8.991
REMARK INTRA:                  -1.485
REMARK UNBOUND:                -1.485
REMARK VINA RESULT:    -7.501      0.000      0.000
REMARK INTER + INTRA:         -12.989
REMARK INTER:                  -9.255
REMARK INTRA:                  -3.734
REMARK UNBOUND:                -3.734
REMARK SMILES C[C@@H](C(=O)Nc1ccc(Cl)cc1)[C@H]1CC[C@@H](c2ccnc3ccc(F)cc32)CC1
REMARK SMILES IDX 2 1 1 2 13 3 14 4 29 5 15 6 28 7 16 8 17 9 18 10 27 11 19 12
REMARK SMILES IDX 26 13 21 14 20 15 24 16 22 17 23 18 25 19 3 20 4 21 5 22
REMARK SMILES IDX 6 24 7 25 12 26 8 27 11 28 9 29 10 30
REMARK H PARENT 5 23
ROOT
ATOM      1  C   UNL     1     133.626 138.619 153.843  1.00  0.00     0.079 C 
ATOM      2  C   UNL     1     134.287 139.556 154.832  1.00  0.00     0.018 C 
ENDROOT
BRANCH   1   3
ATOM      3  C   UNL     1     133.311 139.261 152.521  1.00  0.00     0.001 C 
ATOM      4  C   UNL     1     132.607 138.355 151.589  1.00  0.00     0.005 C 
ATOM      5  C   UNL     1     134.526 139.975 151.982  1.00  0.00     0.005 C 
ATOM      6  C   UNL     1     133.482 137.567 150.633  1.00  0.00     0.009 C 
ATOM      7  C   UNL     1     135.379 139.023 151.113  1.00  0.00     0.009 C 
ATOM      8  C   UNL     1     134.494 138.496 150.064  1.00  0.00     0.020 C 
BRANCH   8   9
ATOM      9  C   UNL     1     135.015 138.247 148.720  1.00  0.00    -0.034 A 
ATOM     10  C   UNL     1     136.042 137.342 148.429  1.00  0.00     0.025 A 
ATOM     11  C   UNL     1     134.499 138.892 147.587  1.00  0.00     0.007 A 
ATOM     12  C   UNL     1     136.499 137.110 147.152  1.00  0.00     0.112 A 
ATOM     13  C   UNL     1     133.489 139.824 147.679  1.00  0.00     0.049 A 
ATOM     14  C   UNL     1     134.982 138.634 146.318  1.00  0.00     0.071 A 
ATOM     15  N   UNL     1     135.973 137.752 146.094  1.00  0.00    -0.256 NA
ATOM     16  C   UNL     1     132.961 140.481 146.609  1.00  0.00     0.123 A 
ATOM     17  C   UNL     1     134.470 139.283 145.208  1.00  0.00     0.032 A 
ATOM     18  C   UNL     1     133.452 140.214 145.347  1.00  0.00     0.041 A 
ATOM     19  F   UNL     1     131.968 141.387 146.764  1.00  0.00    -0.207 F 
ENDBRANCH   8   9
ENDBRANCH   1   3
BRANCH   1  20
ATOM     20  C   UNL     1     132.454 138.019 154.512  1.00  0.00     0.227 C 
ATOM     21  O   UNL     1     132.553 136.877 155.019  1.00  0.00    -0.274 OA
ATOM     22  N   UNL     1     131.237 138.740 154.569  1.00  0.00    -0.326 N 
ATOM     23  H   UNL     1     131.254 139.688 154.115  1.00  0.00     0.169 HD
BRANCH  22  24
ATOM     24  C   UNL     1     130.045 138.321 155.158  1.00  0.00     0.041 A 
ATOM     25  C   UNL     1     129.655 138.511 156.456  1.00  0.00     0.027 A 
ATOM     26  C   UNL     1     129.125 137.623 154.358  1.00  0.00     0.027 A 
ATOM     27  C   UNL     1     128.432 138.048 156.954  1.00  0.00     0.022 A 
ATOM     28  C   UNL     1     127.929 137.169 154.836  1.00  0.00     0.022 A 
ATOM     29  C   UNL     1     127.557 137.372 156.148  1.00  0.00     0.041 A 
ATOM     30  Cl  UNL     1     126.028 136.774 156.707  1.00  0.00    -0.084 Cl
ENDBRANCH  22  24
ENDBRANCH   1  20
TORSDOF 4
ENDMDL
