MODEL 1
REMARK VINA RESULT:    -7.299      0.000      0.000
REMARK INTER + INTRA:         -10.481
REMARK INTER:                  -9.005
REMARK INTRA:                  -1.476
REMARK UNBOUND:                -1.476
REMARK VINA RESULT:    -7.501      0.000      0.000
REMARK INTER + INTRA:         -12.989
REMARK INTER:                  -9.255
REMARK INTRA:                  -3.734
REMARK UNBOUND:                -3.734
REMARK SMILES C[C@@H](C(=O)Nc1ccc(Cl)cc1)[C@H]1CC[C@@H](c2ccnc3ccc(F)cc32)CC1
REMARK SMILES IDX 2 1 1 2 13 3 14 4 29 5 15 6 28 7 16 8 17 9 18 10 27 11 19 12
REMARK SMILES IDX 26 13 21 14 20 15 24 16 22 17 23 18 25 19 3 20 4 21 5 22
REMARK SMILES IDX 6 24 7 25 12 26 8 27 11 28 9 29 10 30
REMARK H PARENT 5 23
ROOT
ATOM      1  C   UNL     1     133.619 138.616 153.849  1.00  0.00     0.079 C 
ATOM      2  C   UNL     1     134.283 139.558 154.830  1.00  0.00     0.018 C 
ENDROOT
BRANCH   1   3
ATOM      3  C   UNL     1     133.299 139.250 152.525  1.00  0.00     0.001 C 
ATOM      4  C   UNL     1     132.604 138.334 151.595  1.00  0.00     0.005 C 
ATOM      5  C   UNL     1     134.508 139.974 151.985  1.00  0.00     0.005 C 
ATOM      6  C   UNL     1     133.489 137.551 150.642  1.00  0.00     0.009 C 
ATOM      7  C   UNL     1     135.371 139.027 151.119  1.00  0.00     0.009 C 
ATOM      8  C   UNL     1     134.492 138.488 150.071  1.00  0.00     0.020 C 
BRANCH   8   9
ATOM      9  C   UNL     1     135.017 138.239 148.729  1.00  0.00    -0.034 A 
ATOM     10  C   UNL     1     136.047 137.336 148.440  1.00  0.00     0.025 A 
ATOM     11  C   UNL     1     134.502 138.883 147.595  1.00  0.00     0.007 A 
ATOM     12  C   UNL     1     136.507 137.105 147.165  1.00  0.00     0.112 A 
ATOM     13  C   UNL     1     133.490 139.813 147.683  1.00  0.00     0.049 A 
ATOM     14  C   UNL     1     134.989 138.626 146.326  1.00  0.00     0.071 A 
ATOM     15  N   UNL     1     135.982 137.746 146.106  1.00  0.00    -0.256 NA
ATOM     16  C   UNL     1     132.963 140.468 146.612  1.00  0.00     0.123 A 
ATOM     17  C   UNL     1     134.478 139.273 145.215  1.00  0.00     0.032 A 
ATOM     18  C   UNL     1     133.457 140.202 145.351  1.00  0.00     0.041 A 
ATOM     19  F   UNL     1     131.968 141.372 146.764  1.00  0.00    -0.207 F 
ENDBRANCH   8   9
ENDBRANCH   1   3
BRANCH   1  20
ATOM     20  C   UNL     1     132.450 138.018 154.525  1.00  0.00     0.227 C 
ATOM     21  O   UNL     1     132.560 136.894 155.068  1.00  0.00    -0.274 OA
ATOM     22  N   UNL     1     131.222 138.724 154.549  1.00  0.00    -0.326 N 
ATOM     23  H   UNL     1     131.229 139.657 154.067  1.00  0.00     0.169 HD
BRANCH  22  24
ATOM     24  C   UNL     1     130.030 138.304 155.140  1.00  0.00     0.041 A 
ATOM     25  C   UNL     1     129.641 138.497 156.438  1.00  0.00     0.027 A 
ATOM     26  C   UNL     1     129.110 137.605 154.342  1.00  0.00     0.027 A 
ATOM     27  C   UNL     1     128.418 138.035 156.938  1.00  0.00     0.022 A 
ATOM     28  C   UNL     1     127.915 137.151 154.822  1.00  0.00     0.022 A 
ATOM     29  C   UNL     1     127.543 137.356 156.134  1.00  0.00     0.041 A 
ATOM     30  Cl  UNL     1     126.015 136.759 156.695  1.00  0.00    -0.084 Cl
ENDBRANCH  22  24
ENDBRANCH   1  20
TORSDOF 4
ENDMDL
