MODEL 1
REMARK VINA RESULT:    -7.292      0.000      0.000
REMARK INTER + INTRA:         -10.479
REMARK INTER:                  -8.998
REMARK INTRA:                  -1.481
REMARK UNBOUND:                -1.481
REMARK VINA RESULT:    -7.501      0.000      0.000
REMARK INTER + INTRA:         -12.989
REMARK INTER:                  -9.255
REMARK INTRA:                  -3.734
REMARK UNBOUND:                -3.734
REMARK SMILES C[C@@H](C(=O)Nc1ccc(Cl)cc1)[C@H]1CC[C@@H](c2ccnc3ccc(F)cc32)CC1
REMARK SMILES IDX 2 1 1 2 13 3 14 4 29 5 15 6 28 7 16 8 17 9 18 10 27 11 19 12
REMARK SMILES IDX 26 13 21 14 20 15 24 16 22 17 23 18 25 19 3 20 4 21 5 22
REMARK SMILES IDX 6 24 7 25 12 26 8 27 11 28 9 29 10 30
REMARK H PARENT 5 23
ROOT
ATOM      1  C   UNL     1     133.622 138.616 153.849  1.00  0.00     0.079 C 
ATOM      2  C   UNL     1     134.286 139.553 154.835  1.00  0.00     0.018 C 
ENDROOT
BRANCH   1   3
ATOM      3  C   UNL     1     133.306 139.257 152.527  1.00  0.00     0.001 C 
ATOM      4  C   UNL     1     132.605 138.348 151.594  1.00  0.00     0.005 C 
ATOM      5  C   UNL     1     134.519 139.974 151.988  1.00  0.00     0.005 C 
ATOM      6  C   UNL     1     133.483 137.562 150.639  1.00  0.00     0.009 C 
ATOM      7  C   UNL     1     135.375 139.024 151.119  1.00  0.00     0.009 C 
ATOM      8  C   UNL     1     134.492 138.493 150.070  1.00  0.00     0.020 C 
BRANCH   8   9
ATOM      9  C   UNL     1     135.015 138.245 148.726  1.00  0.00    -0.034 A 
ATOM     10  C   UNL     1     136.044 137.343 148.436  1.00  0.00     0.025 A 
ATOM     11  C   UNL     1     134.498 138.890 147.593  1.00  0.00     0.007 A 
ATOM     12  C   UNL     1     136.502 137.112 147.160  1.00  0.00     0.112 A 
ATOM     13  C   UNL     1     133.486 139.819 147.684  1.00  0.00     0.049 A 
ATOM     14  C   UNL     1     134.982 138.633 146.324  1.00  0.00     0.071 A 
ATOM     15  N   UNL     1     135.975 137.753 146.101  1.00  0.00    -0.256 NA
ATOM     16  C   UNL     1     132.957 140.475 146.614  1.00  0.00     0.123 A 
ATOM     17  C   UNL     1     134.469 139.279 145.214  1.00  0.00     0.032 A 
ATOM     18  C   UNL     1     133.448 140.208 145.352  1.00  0.00     0.041 A 
ATOM     19  F   UNL     1     131.961 141.379 146.768  1.00  0.00    -0.207 F 
ENDBRANCH   8   9
ENDBRANCH   1   3
BRANCH   1  20
ATOM     20  C   UNL     1     132.451 138.018 154.520  1.00  0.00     0.227 C 
ATOM     21  O   UNL     1     132.553 136.881 155.040  1.00  0.00    -0.274 OA
ATOM     22  N   UNL     1     131.231 138.735 154.566  1.00  0.00    -0.326 N 
ATOM     23  H   UNL     1     131.245 139.678 154.102  1.00  0.00     0.169 HD
BRANCH  22  24
ATOM     24  C   UNL     1     130.038 138.317 155.155  1.00  0.00     0.041 A 
ATOM     25  C   UNL     1     129.651 138.505 156.454  1.00  0.00     0.027 A 
ATOM     26  C   UNL     1     129.117 137.622 154.355  1.00  0.00     0.027 A 
ATOM     27  C   UNL     1     128.427 138.044 156.953  1.00  0.00     0.022 A 
ATOM     28  C   UNL     1     127.921 137.170 154.835  1.00  0.00     0.022 A 
ATOM     29  C   UNL     1     127.550 137.370 156.147  1.00  0.00     0.041 A 
ATOM     30  Cl  UNL     1     126.020 136.775 156.707  1.00  0.00    -0.084 Cl
ENDBRANCH  22  24
ENDBRANCH   1  20
TORSDOF 4
ENDMDL
