MODEL 1
REMARK VINA RESULT:    -7.147      0.000      0.000
REMARK INTER + INTRA:         -10.191
REMARK INTER:                  -8.819
REMARK INTRA:                  -1.373
REMARK UNBOUND:                -1.373
REMARK VINA RESULT:    -7.501      0.000      0.000
REMARK INTER + INTRA:         -12.989
REMARK INTER:                  -9.255
REMARK INTRA:                  -3.734
REMARK UNBOUND:                -3.734
REMARK SMILES C[C@@H](C(=O)Nc1ccc(Cl)cc1)[C@H]1CC[C@@H](c2ccnc3ccc(F)cc32)CC1
REMARK SMILES IDX 2 1 1 2 13 3 14 4 29 5 15 6 28 7 16 8 17 9 18 10 27 11 19 12
REMARK SMILES IDX 26 13 21 14 20 15 24 16 22 17 23 18 25 19 3 20 4 21 5 22
REMARK SMILES IDX 6 24 7 25 12 26 8 27 11 28 9 29 10 30
REMARK H PARENT 5 23
ROOT
ATOM      1  C   UNL     1     134.475 137.195 151.717  1.00  0.00     0.079 C 
ATOM      2  C   UNL     1     134.922 135.749 151.750  1.00  0.00     0.018 C 
ENDROOT
BRANCH   1   3
ATOM      3  C   UNL     1     132.994 137.374 151.892  1.00  0.00     0.001 C 
ATOM      4  C   UNL     1     132.623 138.727 152.358  1.00  0.00     0.005 C 
ATOM      5  C   UNL     1     132.413 136.212 152.661  1.00  0.00     0.005 C 
ATOM      6  C   UNL     1     132.498 138.907 153.858  1.00  0.00     0.009 C 
ATOM      7  C   UNL     1     132.445 136.491 154.181  1.00  0.00     0.009 C 
ATOM      8  C   UNL     1     131.728 137.756 154.398  1.00  0.00     0.020 C 
BRANCH   8   9
ATOM      9  C   UNL     1     130.913 137.941 155.598  1.00  0.00    -0.034 A 
ATOM     10  C   UNL     1     131.426 138.281 156.855  1.00  0.00     0.025 A 
ATOM     11  C   UNL     1     129.516 137.813 155.579  1.00  0.00     0.007 A 
ATOM     12  C   UNL     1     130.635 138.471 157.963  1.00  0.00     0.112 A 
ATOM     13  C   UNL     1     128.833 137.474 154.433  1.00  0.00     0.049 A 
ATOM     14  C   UNL     1     128.751 138.012 156.713  1.00  0.00     0.071 A 
ATOM     15  N   UNL     1     129.298 138.339 157.898  1.00  0.00    -0.256 NA
ATOM     16  C   UNL     1     127.480 137.332 154.367  1.00  0.00     0.123 A 
ATOM     17  C   UNL     1     127.374 137.876 156.684  1.00  0.00     0.032 A 
ATOM     18  C   UNL     1     126.727 137.535 155.506  1.00  0.00     0.041 A 
ATOM     19  F   UNL     1     126.866 136.997 153.209  1.00  0.00    -0.207 F 
ENDBRANCH   8   9
ENDBRANCH   1   3
BRANCH   1  20
ATOM     20  C   UNL     1     135.009 137.799 150.479  1.00  0.00     0.227 C 
ATOM     21  O   UNL     1     135.666 138.865 150.547  1.00  0.00    -0.274 OA
ATOM     22  N   UNL     1     134.770 137.167 149.235  1.00  0.00    -0.326 N 
ATOM     23  H   UNL     1     134.210 136.279 149.281  1.00  0.00     0.169 HD
BRANCH  22  24
ATOM     24  C   UNL     1     135.200 137.602 147.981  1.00  0.00     0.041 A 
ATOM     25  C   UNL     1     136.375 137.284 147.357  1.00  0.00     0.027 A 
ATOM     26  C   UNL     1     134.357 138.462 147.259  1.00  0.00     0.027 A 
ATOM     27  C   UNL     1     136.717 137.776 146.091  1.00  0.00     0.022 A 
ATOM     28  C   UNL     1     134.683 138.946 146.024  1.00  0.00     0.022 A 
ATOM     29  C   UNL     1     135.873 138.613 145.413  1.00  0.00     0.041 A 
ATOM     30  Cl  UNL     1     136.240 139.253 143.844  1.00  0.00    -0.084 Cl
ENDBRANCH  22  24
ENDBRANCH   1  20
TORSDOF 4
ENDMDL
