MODEL 1
REMARK VINA RESULT:    -6.702      0.000      0.000
REMARK INTER + INTRA:         -11.026
REMARK INTER:                  -9.837
REMARK INTRA:                  -1.189
REMARK UNBOUND:                -1.189
REMARK SMILES Cn1nc(C(F)(F)F)cc1C(=O)Nc1ccc(S(=O)(=O)N2CCCC[C@H]2CCN2CCOCC2)cc1
REMARK SMILES IDX 16 1 15 2 17 3 35 4 36 5 14 6 13 7 11 8 12 9 10 11 2 12 3 13
REMARK SMILES IDX 4 14 9 15 1 16 5 17 6 18 7 19 8 20 18 21 19 22 20 23 21 24
REMARK SMILES IDX 26 25 22 26 25 27 23 28 24 29 27 30 28 31 29 32 30 33 34 34
REMARK SMILES IDX 31 35 33 36 32 37
REMARK H PARENT 13 10
ROOT
ATOM      1  C   UNL     1     135.760 136.953 150.836  1.00  0.00     0.024 A 
ATOM      2  C   UNL     1     136.439 137.605 149.638  1.00  0.00     0.027 A 
ATOM      3  C   UNL     1     134.365 136.358 150.680  1.00  0.00     0.082 A 
ATOM      4  C   UNL     1     133.642 136.410 149.343  1.00  0.00     0.024 A 
ATOM      5  C   UNL     1     134.322 137.061 148.146  1.00  0.00     0.027 A 
ATOM      6  C   UNL     1     135.723 137.639 148.292  1.00  0.00     0.041 A 
ENDROOT
BRANCH   6   7
ATOM      7  N   UNL     1     136.345 138.287 147.160  1.00  0.00    -0.321 N 
ATOM      8  C   UNL     1     136.831 137.627 145.966  1.00  0.00     0.273 C 
ATOM      9  O   UNL     1     136.771 136.455 145.819  1.00  0.00    -0.267 OA
ATOM     10  H   UNL     1     136.448 139.265 147.204  1.00  0.00     0.170 HD
BRANCH   8  11
ATOM     11  C   UNL     1     137.390 138.564 144.903  1.00  0.00     0.126 A 
ATOM     12  N   UNL     1     138.602 138.619 144.362  1.00  0.00    -0.262 N 
ATOM     13  N   UNL     1     138.596 139.645 143.426  1.00  0.00    -0.168 NA
ATOM     14  C   UNL     1     137.386 140.189 143.415  1.00  0.00     0.167 A 
ATOM     15  C   UNL     1     136.625 139.526 144.321  1.00  0.00     0.069 A 
ATOM     16  C   UNL     1     139.740 137.778 144.678  1.00  0.00     0.174 C 
BRANCH  14  17
ATOM     17  C   UNL     1     136.895 141.346 142.552  1.00  0.00     0.435 C 
ATOM     18  F   UNL     1     137.946 141.899 141.883  1.00  0.00    -0.164 F 
ATOM     19  F   UNL     1     136.305 142.291 143.337  1.00  0.00    -0.164 F 
ATOM     20  F   UNL     1     135.988 140.870 141.653  1.00  0.00    -0.164 F 
ENDBRANCH  14  17
ENDBRANCH   8  11
ENDBRANCH   6   7
BRANCH   3  21
ATOM     21  S   UNL     1     133.537 135.591 152.093  1.00  0.00     0.243 S 
ATOM     22  O   UNL     1     134.488 135.104 153.087  1.00  0.00    -0.207 OA
ATOM     23  O   UNL     1     132.870 134.357 151.684  1.00  0.00    -0.207 OA
BRANCH  21  24
ATOM     24  N   UNL     1     132.445 136.735 152.747  1.00  0.00    -0.195 NA
ATOM     25  C   UNL     1     131.919 136.561 154.166  1.00  0.00     0.074 C 
ATOM     26  C   UNL     1     132.647 138.227 152.501  1.00  0.00     0.103 C 
ATOM     27  C   UNL     1     132.737 137.314 155.204  1.00  0.00     0.020 C 
ATOM     28  C   UNL     1     133.462 138.927 153.575  1.00  0.00     0.017 C 
ATOM     29  C   UNL     1     132.908 138.722 154.894  1.00  0.00     0.003 C 
BRANCH  25  30
ATOM     30  C   UNL     1     130.484 137.032 154.228  1.00  0.00     0.036 C 
BRANCH  30  31
ATOM     31  C   UNL     1     129.569 135.839 153.964  1.00  0.00     0.086 C 
BRANCH  31  32
ATOM     32  N   UNL     1     128.362 136.182 154.120  1.00  0.00    -0.299 NA
ATOM     33  C   UNL     1     127.756 135.347 155.037  1.00  0.00     0.113 C 
ATOM     34  C   UNL     1     128.282 137.509 154.496  1.00  0.00     0.113 C 
ATOM     35  C   UNL     1     126.306 135.754 155.287  1.00  0.00     0.175 C 
ATOM     36  C   UNL     1     126.838 137.934 154.758  1.00  0.00     0.175 C 
ATOM     37  O   UNL     1     126.200 137.086 155.646  1.00  0.00    -0.379 OA
ENDBRANCH  31  32
ENDBRANCH  30  31
ENDBRANCH  25  30
ENDBRANCH  21  24
ENDBRANCH   3  21
TORSDOF 8
ENDMDL
