MODEL 1
REMARK VINA RESULT:    -6.664      0.000      0.000
REMARK INTER + INTRA:         -10.947
REMARK INTER:                  -9.781
REMARK INTRA:                  -1.166
REMARK UNBOUND:                -1.166
REMARK SMILES Cn1nc(C(F)(F)F)cc1C(=O)Nc1ccc(S(=O)(=O)N2CCCC[C@H]2CCN2CCOCC2)cc1
REMARK SMILES IDX 16 1 15 2 17 3 35 4 36 5 14 6 13 7 11 8 12 9 10 11 2 12 3 13
REMARK SMILES IDX 4 14 9 15 1 16 5 17 6 18 7 19 8 20 18 21 19 22 20 23 21 24
REMARK SMILES IDX 26 25 22 26 25 27 23 28 24 29 27 30 28 31 29 32 30 33 34 34
REMARK SMILES IDX 31 35 33 36 32 37
REMARK H PARENT 13 10
ROOT
ATOM      1  C   UNL     1     135.745 136.889 150.817  1.00  0.00     0.024 A 
ATOM      2  C   UNL     1     136.416 137.534 149.611  1.00  0.00     0.027 A 
ATOM      3  C   UNL     1     134.318 136.364 150.695  1.00  0.00     0.082 A 
ATOM      4  C   UNL     1     133.556 136.482 149.384  1.00  0.00     0.024 A 
ATOM      5  C   UNL     1     134.227 137.127 148.180  1.00  0.00     0.027 A 
ATOM      6  C   UNL     1     135.659 137.634 148.291  1.00  0.00     0.041 A 
ENDROOT
BRANCH   6   7
ATOM      7  N   UNL     1     136.275 138.277 147.153  1.00  0.00    -0.321 N 
ATOM      8  C   UNL     1     136.879 137.604 146.022  1.00  0.00     0.273 C 
ATOM      9  O   UNL     1     136.935 136.426 145.940  1.00  0.00    -0.267 OA
ATOM     10  H   UNL     1     136.285 139.261 147.145  1.00  0.00     0.170 HD
BRANCH   8  11
ATOM     11  C   UNL     1     137.402 138.533 144.934  1.00  0.00     0.126 A 
ATOM     12  N   UNL     1     138.593 138.580 144.349  1.00  0.00    -0.262 N 
ATOM     13  N   UNL     1     138.557 139.600 143.406  1.00  0.00    -0.168 NA
ATOM     14  C   UNL     1     137.349 140.148 143.436  1.00  0.00     0.167 A 
ATOM     15  C   UNL     1     136.620 139.494 144.374  1.00  0.00     0.069 A 
ATOM     16  C   UNL     1     139.739 137.737 144.628  1.00  0.00     0.174 C 
BRANCH  14  17
ATOM     17  C   UNL     1     136.831 141.302 142.584  1.00  0.00     0.435 C 
ATOM     18  F   UNL     1     137.696 142.352 142.660  1.00  0.00    -0.164 F 
ATOM     19  F   UNL     1     135.601 141.688 143.027  1.00  0.00    -0.164 F 
ATOM     20  F   UNL     1     136.739 140.885 141.290  1.00  0.00    -0.164 F 
ENDBRANCH  14  17
ENDBRANCH   8  11
ENDBRANCH   6   7
BRANCH   3  21
ATOM     21  S   UNL     1     133.500 135.606 152.118  1.00  0.00     0.243 S 
ATOM     22  O   UNL     1     134.458 135.129 153.111  1.00  0.00    -0.207 OA
ATOM     23  O   UNL     1     132.834 134.368 151.721  1.00  0.00    -0.207 OA
BRANCH  21  24
ATOM     24  N   UNL     1     132.408 136.752 152.770  1.00  0.00    -0.195 NA
ATOM     25  C   UNL     1     131.820 136.539 154.159  1.00  0.00     0.074 C 
ATOM     26  C   UNL     1     132.656 138.246 152.589  1.00  0.00     0.103 C 
ATOM     27  C   UNL     1     132.611 137.233 155.257  1.00  0.00     0.020 C 
ATOM     28  C   UNL     1     133.441 138.886 153.721  1.00  0.00     0.017 C 
ATOM     29  C   UNL     1     132.828 138.646 155.007  1.00  0.00     0.003 C 
BRANCH  25  30
ATOM     30  C   UNL     1     130.395 137.042 154.180  1.00  0.00     0.036 C 
BRANCH  30  31
ATOM     31  C   UNL     1     129.454 135.841 154.144  1.00  0.00     0.086 C 
BRANCH  31  32
ATOM     32  N   UNL     1     128.255 136.234 154.219  1.00  0.00    -0.299 NA
ATOM     33  C   UNL     1     127.555 135.426 155.092  1.00  0.00     0.113 C 
ATOM     34  C   UNL     1     128.204 137.563 154.591  1.00  0.00     0.113 C 
ATOM     35  C   UNL     1     126.110 135.892 155.246  1.00  0.00     0.175 C 
ATOM     36  C   UNL     1     126.765 138.047 154.757  1.00  0.00     0.175 C 
ATOM     37  O   UNL     1     126.035 137.227 155.599  1.00  0.00    -0.379 OA
ENDBRANCH  31  32
ENDBRANCH  30  31
ENDBRANCH  25  30
ENDBRANCH  21  24
ENDBRANCH   3  21
TORSDOF 8
ENDMDL
