MODEL 1
REMARK VINA RESULT:    -6.514      0.000      0.000
REMARK INTER + INTRA:         -10.798
REMARK INTER:                  -9.560
REMARK INTRA:                  -1.237
REMARK UNBOUND:                -1.237
REMARK SMILES Cn1nc(C(F)(F)F)cc1C(=O)Nc1ccc(S(=O)(=O)N2CCCC[C@H]2CCN2CCOCC2)cc1
REMARK SMILES IDX 16 1 15 2 17 3 35 4 36 5 14 6 13 7 11 8 12 9 10 11 2 12 3 13
REMARK SMILES IDX 4 14 9 15 1 16 5 17 6 18 7 19 8 20 18 21 19 22 20 23 21 24
REMARK SMILES IDX 26 25 22 26 25 27 23 28 24 29 27 30 28 31 29 32 30 33 34 34
REMARK SMILES IDX 31 35 33 36 32 37
REMARK H PARENT 13 10
ROOT
ATOM      1  C   UNL     1     135.753 136.906 150.843  1.00  0.00     0.024 A 
ATOM      2  C   UNL     1     136.398 137.565 149.630  1.00  0.00     0.027 A 
ATOM      3  C   UNL     1     134.323 136.384 150.747  1.00  0.00     0.082 A 
ATOM      4  C   UNL     1     133.532 136.517 149.455  1.00  0.00     0.024 A 
ATOM      5  C   UNL     1     134.177 137.175 148.243  1.00  0.00     0.027 A 
ATOM      6  C   UNL     1     135.612 137.680 148.328  1.00  0.00     0.041 A 
ENDROOT
BRANCH   6   7
ATOM      7  N   UNL     1     136.203 138.335 147.183  1.00  0.00    -0.321 N 
ATOM      8  C   UNL     1     136.685 137.679 145.985  1.00  0.00     0.273 C 
ATOM      9  O   UNL     1     136.647 136.506 145.845  1.00  0.00    -0.267 OA
ATOM     10  H   UNL     1     136.285 139.315 147.221  1.00  0.00     0.170 HD
BRANCH   8  11
ATOM     11  C   UNL     1     137.207 138.623 144.910  1.00  0.00     0.126 A 
ATOM     12  N   UNL     1     138.409 138.701 144.350  1.00  0.00    -0.262 N 
ATOM     13  N   UNL     1     138.367 139.722 143.409  1.00  0.00    -0.168 NA
ATOM     14  C   UNL     1     137.146 140.240 143.414  1.00  0.00     0.167 A 
ATOM     15  C   UNL     1     136.414 139.567 144.336  1.00  0.00     0.069 A 
ATOM     16  C   UNL     1     139.569 137.885 144.651  1.00  0.00     0.174 C 
BRANCH  14  17
ATOM     17  C   UNL     1     136.618 141.383 142.555  1.00  0.00     0.435 C 
ATOM     18  F   UNL     1     135.261 141.451 142.662  1.00  0.00    -0.164 F 
ATOM     19  F   UNL     1     136.965 141.182 141.253  1.00  0.00    -0.164 F 
ATOM     20  F   UNL     1     137.165 142.552 142.995  1.00  0.00    -0.164 F 
ENDBRANCH  14  17
ENDBRANCH   8  11
ENDBRANCH   6   7
BRANCH   3  21
ATOM     21  S   UNL     1     133.537 135.611 152.180  1.00  0.00     0.243 S 
ATOM     22  O   UNL     1     134.517 135.085 153.125  1.00  0.00    -0.207 OA
ATOM     23  O   UNL     1     132.825 134.400 151.777  1.00  0.00    -0.207 OA
BRANCH  21  24
ATOM     24  N   UNL     1     132.498 136.767 152.898  1.00  0.00    -0.195 NA
ATOM     25  C   UNL     1     132.013 136.570 154.328  1.00  0.00     0.074 C 
ATOM     26  C   UNL     1     132.736 138.258 152.684  1.00  0.00     0.103 C 
ATOM     27  C   UNL     1     132.884 137.271 155.358  1.00  0.00     0.020 C 
ATOM     28  C   UNL     1     133.604 138.907 153.750  1.00  0.00     0.017 C 
ATOM     29  C   UNL     1     133.086 138.681 155.079  1.00  0.00     0.003 C 
BRANCH  25  30
ATOM     30  C   UNL     1     130.595 137.078 154.448  1.00  0.00     0.036 C 
BRANCH  30  31
ATOM     31  C   UNL     1     129.646 135.999 153.931  1.00  0.00     0.086 C 
BRANCH  31  32
ATOM     32  N   UNL     1     128.448 136.361 154.111  1.00  0.00    -0.299 NA
ATOM     33  C   UNL     1     127.824 135.487 154.979  1.00  0.00     0.113 C 
ATOM     34  C   UNL     1     128.399 137.664 154.566  1.00  0.00     0.113 C 
ATOM     35  C   UNL     1     126.385 135.912 155.258  1.00  0.00     0.175 C 
ATOM     36  C   UNL     1     126.967 138.106 154.859  1.00  0.00     0.175 C 
ATOM     37  O   UNL     1     126.311 137.222 155.697  1.00  0.00    -0.379 OA
ENDBRANCH  31  32
ENDBRANCH  30  31
ENDBRANCH  25  30
ENDBRANCH  21  24
ENDBRANCH   3  21
TORSDOF 8
ENDMDL
