MODEL 1
REMARK VINA RESULT:    -6.507      0.000      0.000
REMARK INTER + INTRA:         -10.794
REMARK INTER:                  -9.550
REMARK INTRA:                  -1.244
REMARK UNBOUND:                -1.244
REMARK SMILES Cn1nc(C(F)(F)F)cc1C(=O)Nc1ccc(S(=O)(=O)N2CCCC[C@H]2CCN2CCOCC2)cc1
REMARK SMILES IDX 16 1 15 2 17 3 35 4 36 5 14 6 13 7 11 8 12 9 10 11 2 12 3 13
REMARK SMILES IDX 4 14 9 15 1 16 5 17 6 18 7 19 8 20 18 21 19 22 20 23 21 24
REMARK SMILES IDX 26 25 22 26 25 27 23 28 24 29 27 30 28 31 29 32 30 33 34 34
REMARK SMILES IDX 31 35 33 36 32 37
REMARK H PARENT 13 10
ROOT
ATOM      1  C   UNL     1     135.761 136.899 150.866  1.00  0.00     0.024 A 
ATOM      2  C   UNL     1     136.409 137.555 149.653  1.00  0.00     0.027 A 
ATOM      3  C   UNL     1     134.334 136.369 150.764  1.00  0.00     0.082 A 
ATOM      4  C   UNL     1     133.551 136.490 149.466  1.00  0.00     0.024 A 
ATOM      5  C   UNL     1     134.199 137.145 148.254  1.00  0.00     0.027 A 
ATOM      6  C   UNL     1     135.631 137.658 148.345  1.00  0.00     0.041 A 
ENDROOT
BRANCH   6   7
ATOM      7  N   UNL     1     136.225 138.311 147.201  1.00  0.00    -0.321 N 
ATOM      8  C   UNL     1     136.703 137.653 146.003  1.00  0.00     0.273 C 
ATOM      9  O   UNL     1     136.660 136.480 145.862  1.00  0.00    -0.267 OA
ATOM     10  H   UNL     1     136.313 139.290 147.240  1.00  0.00     0.170 HD
BRANCH   8  11
ATOM     11  C   UNL     1     137.231 138.594 144.928  1.00  0.00     0.126 A 
ATOM     12  N   UNL     1     138.434 138.668 144.371  1.00  0.00    -0.262 N 
ATOM     13  N   UNL     1     138.398 139.689 143.429  1.00  0.00    -0.168 NA
ATOM     14  C   UNL     1     137.177 140.210 143.430  1.00  0.00     0.167 A 
ATOM     15  C   UNL     1     136.441 139.539 144.351  1.00  0.00     0.069 A 
ATOM     16  C   UNL     1     139.591 137.850 144.676  1.00  0.00     0.174 C 
BRANCH  14  17
ATOM     17  C   UNL     1     136.655 141.353 142.568  1.00  0.00     0.435 C 
ATOM     18  F   UNL     1     136.913 142.544 143.178  1.00  0.00    -0.164 F 
ATOM     19  F   UNL     1     135.312 141.217 142.382  1.00  0.00    -0.164 F 
ATOM     20  F   UNL     1     137.287 141.317 141.361  1.00  0.00    -0.164 F 
ENDBRANCH  14  17
ENDBRANCH   8  11
ENDBRANCH   6   7
BRANCH   3  21
ATOM     21  S   UNL     1     133.543 135.599 152.196  1.00  0.00     0.243 S 
ATOM     22  O   UNL     1     134.520 135.073 153.144  1.00  0.00    -0.207 OA
ATOM     23  O   UNL     1     132.831 134.388 151.793  1.00  0.00    -0.207 OA
BRANCH  21  24
ATOM     24  N   UNL     1     132.504 136.757 152.909  1.00  0.00    -0.195 NA
ATOM     25  C   UNL     1     132.044 136.582 154.351  1.00  0.00     0.074 C 
ATOM     26  C   UNL     1     132.722 138.247 152.663  1.00  0.00     0.103 C 
ATOM     27  C   UNL     1     132.925 137.312 155.352  1.00  0.00     0.020 C 
ATOM     28  C   UNL     1     133.600 138.925 153.701  1.00  0.00     0.017 C 
ATOM     29  C   UNL     1     133.107 138.719 155.044  1.00  0.00     0.003 C 
BRANCH  25  30
ATOM     30  C   UNL     1     130.623 137.077 154.485  1.00  0.00     0.036 C 
BRANCH  30  31
ATOM     31  C   UNL     1     129.682 136.010 153.932  1.00  0.00     0.086 C 
BRANCH  31  32
ATOM     32  N   UNL     1     128.481 136.365 154.107  1.00  0.00    -0.299 NA
ATOM     33  C   UNL     1     127.859 135.487 154.972  1.00  0.00     0.113 C 
ATOM     34  C   UNL     1     128.425 137.668 154.564  1.00  0.00     0.113 C 
ATOM     35  C   UNL     1     126.417 135.904 155.246  1.00  0.00     0.175 C 
ATOM     36  C   UNL     1     126.989 138.102 154.852  1.00  0.00     0.175 C 
ATOM     37  O   UNL     1     126.334 137.213 155.686  1.00  0.00    -0.379 OA
ENDBRANCH  31  32
ENDBRANCH  30  31
ENDBRANCH  25  30
ENDBRANCH  21  24
ENDBRANCH   3  21
TORSDOF 8
ENDMDL
