MODEL 1
REMARK VINA RESULT:    -6.529      0.000      0.000
REMARK INTER + INTRA:         -10.815
REMARK INTER:                  -9.582
REMARK INTRA:                  -1.234
REMARK UNBOUND:                -1.234
REMARK SMILES Cn1nc(C(F)(F)F)cc1C(=O)Nc1ccc(S(=O)(=O)N2CCCC[C@H]2CCN2CCOCC2)cc1
REMARK SMILES IDX 16 1 15 2 17 3 35 4 36 5 14 6 13 7 11 8 12 9 10 11 2 12 3 13
REMARK SMILES IDX 4 14 9 15 1 16 5 17 6 18 7 19 8 20 18 21 19 22 20 23 21 24
REMARK SMILES IDX 26 25 22 26 25 27 23 28 24 29 27 30 28 31 29 32 30 33 34 34
REMARK SMILES IDX 31 35 33 36 32 37
REMARK H PARENT 13 10
ROOT
ATOM      1  C   UNL     1     135.754 136.944 150.850  1.00  0.00     0.024 A 
ATOM      2  C   UNL     1     136.400 137.601 149.637  1.00  0.00     0.027 A 
ATOM      3  C   UNL     1     134.338 136.387 150.740  1.00  0.00     0.082 A 
ATOM      4  C   UNL     1     133.564 136.483 149.435  1.00  0.00     0.024 A 
ATOM      5  C   UNL     1     134.210 137.139 148.224  1.00  0.00     0.027 A 
ATOM      6  C   UNL     1     135.631 137.680 148.322  1.00  0.00     0.041 A 
ENDROOT
BRANCH   6   7
ATOM      7  N   UNL     1     136.223 138.334 147.177  1.00  0.00    -0.321 N 
ATOM      8  C   UNL     1     136.769 137.672 146.011  1.00  0.00     0.273 C 
ATOM      9  O   UNL     1     136.790 136.495 145.900  1.00  0.00    -0.267 OA
ATOM     10  H   UNL     1     136.258 139.317 147.192  1.00  0.00     0.170 HD
BRANCH   8  11
ATOM     11  C   UNL     1     137.277 138.612 144.925  1.00  0.00     0.126 A 
ATOM     12  N   UNL     1     138.476 138.699 144.360  1.00  0.00    -0.262 N 
ATOM     13  N   UNL     1     138.419 139.711 143.411  1.00  0.00    -0.168 NA
ATOM     14  C   UNL     1     137.192 140.215 143.416  1.00  0.00     0.167 A 
ATOM     15  C   UNL     1     136.471 139.541 144.346  1.00  0.00     0.069 A 
ATOM     16  C   UNL     1     139.646 137.899 144.665  1.00  0.00     0.174 C 
BRANCH  14  17
ATOM     17  C   UNL     1     136.648 141.345 142.548  1.00  0.00     0.435 C 
ATOM     18  F   UNL     1     135.533 140.922 141.889  1.00  0.00    -0.164 F 
ATOM     19  F   UNL     1     137.594 141.732 141.646  1.00  0.00    -0.164 F 
ATOM     20  F   UNL     1     136.327 142.399 143.351  1.00  0.00    -0.164 F 
ENDBRANCH  14  17
ENDBRANCH   8  11
ENDBRANCH   6   7
BRANCH   3  21
ATOM     21  S   UNL     1     133.550 135.614 152.172  1.00  0.00     0.243 S 
ATOM     22  O   UNL     1     134.528 135.097 153.124  1.00  0.00    -0.207 OA
ATOM     23  O   UNL     1     132.846 134.398 151.770  1.00  0.00    -0.207 OA
BRANCH  21  24
ATOM     24  N   UNL     1     132.502 136.767 152.882  1.00  0.00    -0.195 NA
ATOM     25  C   UNL     1     132.021 136.579 154.315  1.00  0.00     0.074 C 
ATOM     26  C   UNL     1     132.725 138.259 152.653  1.00  0.00     0.103 C 
ATOM     27  C   UNL     1     132.888 137.298 155.336  1.00  0.00     0.020 C 
ATOM     28  C   UNL     1     133.589 138.925 153.711  1.00  0.00     0.017 C 
ATOM     29  C   UNL     1     133.076 138.707 155.044  1.00  0.00     0.003 C 
BRANCH  25  30
ATOM     30  C   UNL     1     130.599 137.074 154.433  1.00  0.00     0.036 C 
BRANCH  30  31
ATOM     31  C   UNL     1     129.659 135.982 153.931  1.00  0.00     0.086 C 
BRANCH  31  32
ATOM     32  N   UNL     1     128.458 136.333 154.113  1.00  0.00    -0.299 NA
ATOM     33  C   UNL     1     127.850 135.466 154.999  1.00  0.00     0.113 C 
ATOM     34  C   UNL     1     128.398 137.642 154.548  1.00  0.00     0.113 C 
ATOM     35  C   UNL     1     126.407 135.879 155.280  1.00  0.00     0.175 C 
ATOM     36  C   UNL     1     126.962 138.073 154.842  1.00  0.00     0.175 C 
ATOM     37  O   UNL     1     126.322 137.195 155.698  1.00  0.00    -0.379 OA
ENDBRANCH  31  32
ENDBRANCH  30  31
ENDBRANCH  25  30
ENDBRANCH  21  24
ENDBRANCH   3  21
TORSDOF 8
ENDMDL
