MODEL 1
REMARK VINA RESULT:    -6.662      0.000      0.000
REMARK INTER + INTRA:         -11.007
REMARK INTER:                  -9.778
REMARK INTRA:                  -1.229
REMARK UNBOUND:                -1.229
REMARK SMILES Cn1nc(C(F)(F)F)cc1C(=O)Nc1ccc(S(=O)(=O)N2CCCC[C@H]2CCN2CCOCC2)cc1
REMARK SMILES IDX 16 1 15 2 17 3 35 4 36 5 14 6 13 7 11 8 12 9 10 11 2 12 3 13
REMARK SMILES IDX 4 14 9 15 1 16 5 17 6 18 7 19 8 20 18 21 19 22 20 23 21 24
REMARK SMILES IDX 26 25 22 26 25 27 23 28 24 29 27 30 28 31 29 32 30 33 34 34
REMARK SMILES IDX 31 35 33 36 32 37
REMARK H PARENT 13 10
ROOT
ATOM      1  C   UNL     1     135.730 136.941 150.793  1.00  0.00     0.024 A 
ATOM      2  C   UNL     1     136.386 137.604 149.588  1.00  0.00     0.027 A 
ATOM      3  C   UNL     1     134.325 136.362 150.664  1.00  0.00     0.082 A 
ATOM      4  C   UNL     1     133.570 136.442 149.346  1.00  0.00     0.024 A 
ATOM      5  C   UNL     1     134.226 137.104 148.142  1.00  0.00     0.027 A 
ATOM      6  C   UNL     1     135.637 137.666 148.261  1.00  0.00     0.041 A 
ENDROOT
BRANCH   6   7
ATOM      7  N   UNL     1     136.236 138.325 147.124  1.00  0.00    -0.321 N 
ATOM      8  C   UNL     1     136.860 137.668 145.994  1.00  0.00     0.273 C 
ATOM      9  O   UNL     1     136.948 136.491 145.913  1.00  0.00    -0.267 OA
ATOM     10  H   UNL     1     136.219 139.309 147.115  1.00  0.00     0.170 HD
BRANCH   8  11
ATOM     11  C   UNL     1     137.359 138.609 144.906  1.00  0.00     0.126 A 
ATOM     12  N   UNL     1     138.553 138.697 144.331  1.00  0.00    -0.262 N 
ATOM     13  N   UNL     1     138.489 139.710 143.383  1.00  0.00    -0.168 NA
ATOM     14  C   UNL     1     137.261 140.214 143.399  1.00  0.00     0.167 A 
ATOM     15  C   UNL     1     136.548 139.539 144.334  1.00  0.00     0.069 A 
ATOM     16  C   UNL     1     139.726 137.897 144.625  1.00  0.00     0.174 C 
BRANCH  14  17
ATOM     17  C   UNL     1     136.711 141.345 142.538  1.00  0.00     0.435 C 
ATOM     18  F   UNL     1     135.429 141.062 142.173  1.00  0.00    -0.164 F 
ATOM     19  F   UNL     1     137.481 141.496 141.424  1.00  0.00    -0.164 F 
ATOM     20  F   UNL     1     136.729 142.499 143.263  1.00  0.00    -0.164 F 
ENDBRANCH  14  17
ENDBRANCH   8  11
ENDBRANCH   6   7
BRANCH   3  21
ATOM     21  S   UNL     1     133.526 135.582 152.086  1.00  0.00     0.243 S 
ATOM     22  O   UNL     1     134.497 135.085 153.056  1.00  0.00    -0.207 OA
ATOM     23  O   UNL     1     132.850 134.352 151.678  1.00  0.00    -0.207 OA
BRANCH  21  24
ATOM     24  N   UNL     1     132.447 136.720 152.772  1.00  0.00    -0.195 NA
ATOM     25  C   UNL     1     132.039 136.596 154.235  1.00  0.00     0.074 C 
ATOM     26  C   UNL     1     132.578 138.204 152.445  1.00  0.00     0.103 C 
ATOM     27  C   UNL     1     132.907 137.422 155.170  1.00  0.00     0.020 C 
ATOM     28  C   UNL     1     133.448 138.980 153.420  1.00  0.00     0.017 C 
ATOM     29  C   UNL     1     133.004 138.818 154.786  1.00  0.00     0.003 C 
BRANCH  25  30
ATOM     30  C   UNL     1     130.598 137.022 154.388  1.00  0.00     0.036 C 
BRANCH  30  31
ATOM     31  C   UNL     1     129.700 135.899 153.876  1.00  0.00     0.086 C 
BRANCH  31  32
ATOM     32  N   UNL     1     128.486 136.205 154.055  1.00  0.00    -0.299 NA
ATOM     33  C   UNL     1     127.917 135.331 154.960  1.00  0.00     0.113 C 
ATOM     34  C   UNL     1     128.374 137.519 154.464  1.00  0.00     0.113 C 
ATOM     35  C   UNL     1     126.459 135.691 155.239  1.00  0.00     0.175 C 
ATOM     36  C   UNL     1     126.923 137.897 154.756  1.00  0.00     0.175 C 
ATOM     37  O   UNL     1     126.322 137.010 155.631  1.00  0.00    -0.379 OA
ENDBRANCH  31  32
ENDBRANCH  30  31
ENDBRANCH  25  30
ENDBRANCH  21  24
ENDBRANCH   3  21
TORSDOF 8
ENDMDL
