MODEL 1
REMARK VINA RESULT:    -6.505      0.000      0.000
REMARK INTER + INTRA:         -10.800
REMARK INTER:                  -9.547
REMARK INTRA:                  -1.253
REMARK UNBOUND:                -1.253
REMARK SMILES Cn1nc(C(F)(F)F)cc1C(=O)Nc1ccc(S(=O)(=O)N2CCCC[C@H]2CCN2CCOCC2)cc1
REMARK SMILES IDX 16 1 15 2 17 3 35 4 36 5 14 6 13 7 11 8 12 9 10 11 2 12 3 13
REMARK SMILES IDX 4 14 9 15 1 16 5 17 6 18 7 19 8 20 18 21 19 22 20 23 21 24
REMARK SMILES IDX 26 25 22 26 25 27 23 28 24 29 27 30 28 31 29 32 30 33 34 34
REMARK SMILES IDX 31 35 33 36 32 37
REMARK H PARENT 13 10
ROOT
ATOM      1  C   UNL     1     135.732 136.927 150.861  1.00  0.00     0.024 A 
ATOM      2  C   UNL     1     136.381 137.584 149.649  1.00  0.00     0.027 A 
ATOM      3  C   UNL     1     134.315 136.374 150.749  1.00  0.00     0.082 A 
ATOM      4  C   UNL     1     133.541 136.475 149.444  1.00  0.00     0.024 A 
ATOM      5  C   UNL     1     134.191 137.131 148.234  1.00  0.00     0.027 A 
ATOM      6  C   UNL     1     135.613 137.667 148.334  1.00  0.00     0.041 A 
ENDROOT
BRANCH   6   7
ATOM      7  N   UNL     1     136.208 138.321 147.191  1.00  0.00    -0.321 N 
ATOM      8  C   UNL     1     136.700 137.663 145.998  1.00  0.00     0.273 C 
ATOM      9  O   UNL     1     136.670 136.488 145.863  1.00  0.00    -0.267 OA
ATOM     10  H   UNL     1     136.285 139.301 147.225  1.00  0.00     0.170 HD
BRANCH   8  11
ATOM     11  C   UNL     1     137.225 138.605 144.922  1.00  0.00     0.126 A 
ATOM     12  N   UNL     1     138.432 138.693 144.377  1.00  0.00    -0.262 N 
ATOM     13  N   UNL     1     138.390 139.706 143.427  1.00  0.00    -0.168 NA
ATOM     14  C   UNL     1     137.162 140.210 143.414  1.00  0.00     0.167 A 
ATOM     15  C   UNL     1     136.427 139.534 144.331  1.00  0.00     0.069 A 
ATOM     16  C   UNL     1     139.598 137.894 144.699  1.00  0.00     0.174 C 
BRANCH  14  17
ATOM     17  C   UNL     1     136.631 141.339 142.539  1.00  0.00     0.435 C 
ATOM     18  F   UNL     1     135.372 141.038 142.113  1.00  0.00    -0.164 F 
ATOM     19  F   UNL     1     137.449 141.515 141.463  1.00  0.00    -0.164 F 
ATOM     20  F   UNL     1     136.597 142.486 143.276  1.00  0.00    -0.164 F 
ENDBRANCH  14  17
ENDBRANCH   8  11
ENDBRANCH   6   7
BRANCH   3  21
ATOM     21  S   UNL     1     133.523 135.602 152.180  1.00  0.00     0.243 S 
ATOM     22  O   UNL     1     134.499 135.085 153.134  1.00  0.00    -0.207 OA
ATOM     23  O   UNL     1     132.820 134.386 151.776  1.00  0.00    -0.207 OA
BRANCH  21  24
ATOM     24  N   UNL     1     132.474 136.755 152.887  1.00  0.00    -0.195 NA
ATOM     25  C   UNL     1     132.059 136.614 154.346  1.00  0.00     0.074 C 
ATOM     26  C   UNL     1     132.644 138.241 152.588  1.00  0.00     0.103 C 
ATOM     27  C   UNL     1     132.948 137.399 155.298  1.00  0.00     0.020 C 
ATOM     28  C   UNL     1     133.533 138.974 153.579  1.00  0.00     0.017 C 
ATOM     29  C   UNL     1     133.083 138.799 154.941  1.00  0.00     0.003 C 
BRANCH  25  30
ATOM     30  C   UNL     1     130.630 137.076 154.505  1.00  0.00     0.036 C 
BRANCH  30  31
ATOM     31  C   UNL     1     129.707 136.024 153.896  1.00  0.00     0.086 C 
BRANCH  31  32
ATOM     32  N   UNL     1     128.501 136.349 154.090  1.00  0.00    -0.299 NA
ATOM     33  C   UNL     1     127.917 135.463 154.973  1.00  0.00     0.113 C 
ATOM     34  C   UNL     1     128.416 137.654 154.535  1.00  0.00     0.113 C 
ATOM     35  C   UNL     1     126.469 135.844 155.268  1.00  0.00     0.175 C 
ATOM     36  C   UNL     1     126.974 138.052 154.843  1.00  0.00     0.175 C 
ATOM     37  O   UNL     1     126.359 137.154 155.697  1.00  0.00    -0.379 OA
ENDBRANCH  31  32
ENDBRANCH  30  31
ENDBRANCH  25  30
ENDBRANCH  21  24
ENDBRANCH   3  21
TORSDOF 8
ENDMDL
