MODEL 1
REMARK VINA RESULT:    -6.675      0.000      0.000
REMARK INTER + INTRA:         -10.985
REMARK INTER:                  -9.796
REMARK INTRA:                  -1.189
REMARK UNBOUND:                -1.189
REMARK SMILES Cn1nc(C(F)(F)F)cc1C(=O)Nc1ccc(S(=O)(=O)N2CCCC[C@H]2CCN2CCOCC2)cc1
REMARK SMILES IDX 16 1 15 2 17 3 35 4 36 5 14 6 13 7 11 8 12 9 10 11 2 12 3 13
REMARK SMILES IDX 4 14 9 15 1 16 5 17 6 18 7 19 8 20 18 21 19 22 20 23 21 24
REMARK SMILES IDX 26 25 22 26 25 27 23 28 24 29 27 30 28 31 29 32 30 33 34 34
REMARK SMILES IDX 31 35 33 36 32 37
REMARK H PARENT 13 10
ROOT
ATOM      1  C   UNL     1     135.749 136.887 150.786  1.00  0.00     0.024 A 
ATOM      2  C   UNL     1     136.408 137.545 149.581  1.00  0.00     0.027 A 
ATOM      3  C   UNL     1     134.318 136.370 150.673  1.00  0.00     0.082 A 
ATOM      4  C   UNL     1     133.542 136.508 149.373  1.00  0.00     0.024 A 
ATOM      5  C   UNL     1     134.202 137.165 148.169  1.00  0.00     0.027 A 
ATOM      6  C   UNL     1     135.637 137.665 148.270  1.00  0.00     0.041 A 
ENDROOT
BRANCH   6   7
ATOM      7  N   UNL     1     136.243 138.321 147.134  1.00  0.00    -0.321 N 
ATOM      8  C   UNL     1     136.817 137.660 145.980  1.00  0.00     0.273 C 
ATOM      9  O   UNL     1     136.854 136.482 145.876  1.00  0.00    -0.267 OA
ATOM     10  H   UNL     1     136.267 139.304 147.144  1.00  0.00     0.170 HD
BRANCH   8  11
ATOM     11  C   UNL     1     137.334 138.601 144.900  1.00  0.00     0.126 A 
ATOM     12  N   UNL     1     138.530 138.669 144.326  1.00  0.00    -0.262 N 
ATOM     13  N   UNL     1     138.486 139.692 143.387  1.00  0.00    -0.168 NA
ATOM     14  C   UNL     1     137.269 140.221 143.408  1.00  0.00     0.167 A 
ATOM     15  C   UNL     1     136.542 139.552 144.337  1.00  0.00     0.069 A 
ATOM     16  C   UNL     1     139.687 137.844 144.612  1.00  0.00     0.174 C 
BRANCH  14  17
ATOM     17  C   UNL     1     136.741 141.369 142.556  1.00  0.00     0.435 C 
ATOM     18  F   UNL     1     137.475 142.493 142.794  1.00  0.00    -0.164 F 
ATOM     19  F   UNL     1     135.433 141.606 142.857  1.00  0.00    -0.164 F 
ATOM     20  F   UNL     1     136.851 141.028 141.241  1.00  0.00    -0.164 F 
ENDBRANCH  14  17
ENDBRANCH   8  11
ENDBRANCH   6   7
BRANCH   3  21
ATOM     21  S   UNL     1     133.514 135.597 152.096  1.00  0.00     0.243 S 
ATOM     22  O   UNL     1     134.481 135.110 153.075  1.00  0.00    -0.207 OA
ATOM     23  O   UNL     1     132.844 134.363 151.693  1.00  0.00    -0.207 OA
BRANCH  21  24
ATOM     24  N   UNL     1     132.428 136.736 152.770  1.00  0.00    -0.195 NA
ATOM     25  C   UNL     1     131.889 136.533 154.180  1.00  0.00     0.074 C 
ATOM     26  C   UNL     1     132.648 138.231 152.562  1.00  0.00     0.103 C 
ATOM     27  C   UNL     1     132.707 137.251 155.242  1.00  0.00     0.020 C 
ATOM     28  C   UNL     1     133.462 138.896 153.660  1.00  0.00     0.017 C 
ATOM     29  C   UNL     1     132.895 138.664 154.968  1.00  0.00     0.003 C 
BRANCH  25  30
ATOM     30  C   UNL     1     130.459 137.016 154.242  1.00  0.00     0.036 C 
BRANCH  30  31
ATOM     31  C   UNL     1     129.532 135.831 153.987  1.00  0.00     0.086 C 
BRANCH  31  32
ATOM     32  N   UNL     1     128.329 136.188 154.132  1.00  0.00    -0.299 NA
ATOM     33  C   UNL     1     127.705 135.359 155.043  1.00  0.00     0.113 C 
ATOM     34  C   UNL     1     128.261 137.515 154.511  1.00  0.00     0.113 C 
ATOM     35  C   UNL     1     126.258 135.783 155.281  1.00  0.00     0.175 C 
ATOM     36  C   UNL     1     126.820 137.957 154.761  1.00  0.00     0.175 C 
ATOM     37  O   UNL     1     126.165 137.115 155.642  1.00  0.00    -0.379 OA
ENDBRANCH  31  32
ENDBRANCH  30  31
ENDBRANCH  25  30
ENDBRANCH  21  24
ENDBRANCH   3  21
TORSDOF 8
ENDMDL
