MODEL 1
REMARK VINA RESULT:    -6.673      0.000      0.000
REMARK INTER + INTRA:         -11.014
REMARK INTER:                  -9.794
REMARK INTRA:                  -1.220
REMARK UNBOUND:                -1.220
REMARK SMILES Cn1nc(C(F)(F)F)cc1C(=O)Nc1ccc(S(=O)(=O)N2CCCC[C@H]2CCN2CCOCC2)cc1
REMARK SMILES IDX 16 1 15 2 17 3 35 4 36 5 14 6 13 7 11 8 12 9 10 11 2 12 3 13
REMARK SMILES IDX 4 14 9 15 1 16 5 17 6 18 7 19 8 20 18 21 19 22 20 23 21 24
REMARK SMILES IDX 26 25 22 26 25 27 23 28 24 29 27 30 28 31 29 32 30 33 34 34
REMARK SMILES IDX 31 35 33 36 32 37
REMARK H PARENT 13 10
ROOT
ATOM      1  C   UNL     1     135.754 136.938 150.816  1.00  0.00     0.024 A 
ATOM      2  C   UNL     1     136.414 137.599 149.612  1.00  0.00     0.027 A 
ATOM      3  C   UNL     1     134.348 136.362 150.683  1.00  0.00     0.082 A 
ATOM      4  C   UNL     1     133.596 136.443 149.364  1.00  0.00     0.024 A 
ATOM      5  C   UNL     1     134.256 137.103 148.162  1.00  0.00     0.027 A 
ATOM      6  C   UNL     1     135.668 137.662 148.284  1.00  0.00     0.041 A 
ENDROOT
BRANCH   6   7
ATOM      7  N   UNL     1     136.272 138.319 147.147  1.00  0.00    -0.321 N 
ATOM      8  C   UNL     1     136.799 137.662 145.969  1.00  0.00     0.273 C 
ATOM      9  O   UNL     1     136.792 136.487 145.840  1.00  0.00    -0.267 OA
ATOM     10  H   UNL     1     136.331 139.301 147.177  1.00  0.00     0.170 HD
BRANCH   8  11
ATOM     11  C   UNL     1     137.327 138.607 144.897  1.00  0.00     0.126 A 
ATOM     12  N   UNL     1     138.530 138.682 144.339  1.00  0.00    -0.262 N 
ATOM     13  N   UNL     1     138.493 139.705 143.400  1.00  0.00    -0.168 NA
ATOM     14  C   UNL     1     137.273 140.227 143.404  1.00  0.00     0.167 A 
ATOM     15  C   UNL     1     136.537 139.553 144.323  1.00  0.00     0.069 A 
ATOM     16  C   UNL     1     139.687 137.863 144.642  1.00  0.00     0.174 C 
BRANCH  14  17
ATOM     17  C   UNL     1     136.751 141.373 142.546  1.00  0.00     0.435 C 
ATOM     18  F   UNL     1     137.097 142.565 143.109  1.00  0.00    -0.164 F 
ATOM     19  F   UNL     1     135.394 141.293 142.442  1.00  0.00    -0.164 F 
ATOM     20  F   UNL     1     137.308 141.281 141.305  1.00  0.00    -0.164 F 
ENDBRANCH  14  17
ENDBRANCH   8  11
ENDBRANCH   6   7
BRANCH   3  21
ATOM     21  S   UNL     1     133.543 135.585 152.104  1.00  0.00     0.243 S 
ATOM     22  O   UNL     1     134.510 135.099 153.083  1.00  0.00    -0.207 OA
ATOM     23  O   UNL     1     132.877 134.349 151.697  1.00  0.00    -0.207 OA
BRANCH  21  24
ATOM     24  N   UNL     1     132.453 136.720 152.777  1.00  0.00    -0.195 NA
ATOM     25  C   UNL     1     131.978 136.559 154.216  1.00  0.00     0.074 C 
ATOM     26  C   UNL     1     132.620 138.210 152.501  1.00  0.00     0.103 C 
ATOM     27  C   UNL     1     132.817 137.343 155.213  1.00  0.00     0.020 C 
ATOM     28  C   UNL     1     133.458 138.942 153.536  1.00  0.00     0.017 C 
ATOM     29  C   UNL     1     132.953 138.748 154.876  1.00  0.00     0.003 C 
BRANCH  25  30
ATOM     30  C   UNL     1     130.539 137.005 154.319  1.00  0.00     0.036 C 
BRANCH  30  31
ATOM     31  C   UNL     1     129.638 135.842 153.910  1.00  0.00     0.086 C 
BRANCH  31  32
ATOM     32  N   UNL     1     128.426 136.157 154.085  1.00  0.00    -0.299 NA
ATOM     33  C   UNL     1     127.855 135.308 155.012  1.00  0.00     0.113 C 
ATOM     34  C   UNL     1     128.320 137.481 154.463  1.00  0.00     0.113 C 
ATOM     35  C   UNL     1     126.400 135.680 155.285  1.00  0.00     0.175 C 
ATOM     36  C   UNL     1     126.871 137.872 154.748  1.00  0.00     0.175 C 
ATOM     37  O   UNL     1     126.268 137.009 155.646  1.00  0.00    -0.379 OA
ENDBRANCH  31  32
ENDBRANCH  30  31
ENDBRANCH  25  30
ENDBRANCH  21  24
ENDBRANCH   3  21
TORSDOF 8
ENDMDL
