MODEL 1
REMARK VINA RESULT:    -6.687      0.000      0.000
REMARK INTER + INTRA:         -11.004
REMARK INTER:                  -9.814
REMARK INTRA:                  -1.191
REMARK UNBOUND:                -1.191
REMARK SMILES Cn1nc(C(F)(F)F)cc1C(=O)Nc1ccc(S(=O)(=O)N2CCCC[C@H]2CCN2CCOCC2)cc1
REMARK SMILES IDX 16 1 15 2 17 3 35 4 36 5 14 6 13 7 11 8 12 9 10 11 2 12 3 13
REMARK SMILES IDX 4 14 9 15 1 16 5 17 6 18 7 19 8 20 18 21 19 22 20 23 21 24
REMARK SMILES IDX 26 25 22 26 25 27 23 28 24 29 27 30 28 31 29 32 30 33 34 34
REMARK SMILES IDX 31 35 33 36 32 37
REMARK H PARENT 13 10
ROOT
ATOM      1  C   UNL     1     135.790 136.880 150.806  1.00  0.00     0.024 A 
ATOM      2  C   UNL     1     136.461 137.538 149.606  1.00  0.00     0.027 A 
ATOM      3  C   UNL     1     134.362 136.360 150.679  1.00  0.00     0.082 A 
ATOM      4  C   UNL     1     133.599 136.493 149.371  1.00  0.00     0.024 A 
ATOM      5  C   UNL     1     134.269 137.150 148.173  1.00  0.00     0.027 A 
ATOM      6  C   UNL     1     135.703 137.653 148.287  1.00  0.00     0.041 A 
ENDROOT
BRANCH   6   7
ATOM      7  N   UNL     1     136.318 138.308 147.156  1.00  0.00    -0.321 N 
ATOM      8  C   UNL     1     136.711 137.669 145.917  1.00  0.00     0.273 C 
ATOM      9  O   UNL     1     136.570 136.510 145.727  1.00  0.00    -0.267 OA
ATOM     10  H   UNL     1     136.485 139.274 147.233  1.00  0.00     0.170 HD
BRANCH   8  11
ATOM     11  C   UNL     1     137.285 138.613 144.868  1.00  0.00     0.126 A 
ATOM     12  N   UNL     1     138.502 138.665 144.338  1.00  0.00    -0.262 N 
ATOM     13  N   UNL     1     138.511 139.700 143.412  1.00  0.00    -0.168 NA
ATOM     14  C   UNL     1     137.304 140.252 143.396  1.00  0.00     0.167 A 
ATOM     15  C   UNL     1     136.532 139.586 144.290  1.00  0.00     0.069 A 
ATOM     16  C   UNL     1     139.631 137.813 144.655  1.00  0.00     0.174 C 
BRANCH  14  17
ATOM     17  C   UNL     1     136.829 141.421 142.541  1.00  0.00     0.435 C 
ATOM     18  F   UNL     1     136.159 142.317 143.320  1.00  0.00    -0.164 F 
ATOM     19  F   UNL     1     136.006 140.969 141.553  1.00  0.00    -0.164 F 
ATOM     20  F   UNL     1     137.915 142.029 141.986  1.00  0.00    -0.164 F 
ENDBRANCH  14  17
ENDBRANCH   8  11
ENDBRANCH   6   7
BRANCH   3  21
ATOM     21  S   UNL     1     133.545 135.588 152.096  1.00  0.00     0.243 S 
ATOM     22  O   UNL     1     134.503 135.098 153.081  1.00  0.00    -0.207 OA
ATOM     23  O   UNL     1     132.875 134.355 151.686  1.00  0.00    -0.207 OA
BRANCH  21  24
ATOM     24  N   UNL     1     132.456 136.729 152.762  1.00  0.00    -0.195 NA
ATOM     25  C   UNL     1     131.905 136.525 154.167  1.00  0.00     0.074 C 
ATOM     26  C   UNL     1     132.683 138.223 152.558  1.00  0.00     0.103 C 
ATOM     27  C   UNL     1     132.715 137.239 155.237  1.00  0.00     0.020 C 
ATOM     28  C   UNL     1     133.488 138.885 153.664  1.00  0.00     0.017 C 
ATOM     29  C   UNL     1     132.910 138.652 154.967  1.00  0.00     0.003 C 
BRANCH  25  30
ATOM     30  C   UNL     1     130.476 137.012 154.217  1.00  0.00     0.036 C 
BRANCH  30  31
ATOM     31  C   UNL     1     129.548 135.828 153.962  1.00  0.00     0.086 C 
BRANCH  31  32
ATOM     32  N   UNL     1     128.345 136.184 154.121  1.00  0.00    -0.299 NA
ATOM     33  C   UNL     1     127.734 135.357 155.043  1.00  0.00     0.113 C 
ATOM     34  C   UNL     1     128.279 137.512 154.495  1.00  0.00     0.113 C 
ATOM     35  C   UNL     1     126.289 135.779 155.297  1.00  0.00     0.175 C 
ATOM     36  C   UNL     1     126.841 137.951 154.761  1.00  0.00     0.175 C 
ATOM     37  O   UNL     1     126.198 137.112 155.653  1.00  0.00    -0.379 OA
ENDBRANCH  31  32
ENDBRANCH  30  31
ENDBRANCH  25  30
ENDBRANCH  21  24
ENDBRANCH   3  21
TORSDOF 8
ENDMDL
