MODEL 1
REMARK VINA RESULT:    -6.700      0.000      0.000
REMARK INTER + INTRA:         -11.018
REMARK INTER:                  -9.833
REMARK INTRA:                  -1.184
REMARK UNBOUND:                -1.184
REMARK SMILES Cn1nc(C(F)(F)F)cc1C(=O)Nc1ccc(S(=O)(=O)N2CCCC[C@H]2CCN2CCOCC2)cc1
REMARK SMILES IDX 16 1 15 2 17 3 35 4 36 5 14 6 13 7 11 8 12 9 10 11 2 12 3 13
REMARK SMILES IDX 4 14 9 15 1 16 5 17 6 18 7 19 8 20 18 21 19 22 20 23 21 24
REMARK SMILES IDX 26 25 22 26 25 27 23 28 24 29 27 30 28 31 29 32 30 33 34 34
REMARK SMILES IDX 31 35 33 36 32 37
REMARK H PARENT 13 10
ROOT
ATOM      1  C   UNL     1     135.772 136.905 150.822  1.00  0.00     0.024 A 
ATOM      2  C   UNL     1     136.451 137.557 149.624  1.00  0.00     0.027 A 
ATOM      3  C   UNL     1     134.357 136.354 150.679  1.00  0.00     0.082 A 
ATOM      4  C   UNL     1     133.615 136.451 149.355  1.00  0.00     0.024 A 
ATOM      5  C   UNL     1     134.295 137.102 148.158  1.00  0.00     0.027 A 
ATOM      6  C   UNL     1     135.715 137.637 148.291  1.00  0.00     0.041 A 
ENDROOT
BRANCH   6   7
ATOM      7  N   UNL     1     136.338 138.286 147.160  1.00  0.00    -0.321 N 
ATOM      8  C   UNL     1     136.828 137.627 145.967  1.00  0.00     0.273 C 
ATOM      9  O   UNL     1     136.770 136.454 145.820  1.00  0.00    -0.267 OA
ATOM     10  H   UNL     1     136.438 139.264 147.204  1.00  0.00     0.170 HD
BRANCH   8  11
ATOM     11  C   UNL     1     137.386 138.565 144.905  1.00  0.00     0.126 A 
ATOM     12  N   UNL     1     138.599 138.623 144.367  1.00  0.00    -0.262 N 
ATOM     13  N   UNL     1     138.593 139.648 143.430  1.00  0.00    -0.168 NA
ATOM     14  C   UNL     1     137.382 140.189 143.416  1.00  0.00     0.167 A 
ATOM     15  C   UNL     1     136.621 139.525 144.322  1.00  0.00     0.069 A 
ATOM     16  C   UNL     1     139.738 137.784 144.685  1.00  0.00     0.174 C 
BRANCH  14  17
ATOM     17  C   UNL     1     136.891 141.345 142.553  1.00  0.00     0.435 C 
ATOM     18  F   UNL     1     135.861 140.926 141.764  1.00  0.00    -0.164 F 
ATOM     19  F   UNL     1     137.908 141.804 141.771  1.00  0.00    -0.164 F 
ATOM     20  F   UNL     1     136.455 142.348 143.368  1.00  0.00    -0.164 F 
ENDBRANCH  14  17
ENDBRANCH   8  11
ENDBRANCH   6   7
BRANCH   3  21
ATOM     21  S   UNL     1     133.530 135.588 152.092  1.00  0.00     0.243 S 
ATOM     22  O   UNL     1     134.481 135.096 153.083  1.00  0.00    -0.207 OA
ATOM     23  O   UNL     1     132.858 134.356 151.681  1.00  0.00    -0.207 OA
BRANCH  21  24
ATOM     24  N   UNL     1     132.442 136.734 152.750  1.00  0.00    -0.195 NA
ATOM     25  C   UNL     1     131.869 136.526 154.146  1.00  0.00     0.074 C 
ATOM     26  C   UNL     1     132.684 138.228 152.559  1.00  0.00     0.103 C 
ATOM     27  C   UNL     1     132.670 137.226 155.232  1.00  0.00     0.020 C 
ATOM     28  C   UNL     1     133.480 138.875 153.680  1.00  0.00     0.017 C 
ATOM     29  C   UNL     1     132.881 138.639 154.974  1.00  0.00     0.003 C 
BRANCH  25  30
ATOM     30  C   UNL     1     130.444 137.025 154.180  1.00  0.00     0.036 C 
BRANCH  30  31
ATOM     31  C   UNL     1     129.505 135.830 154.037  1.00  0.00     0.086 C 
BRANCH  31  32
ATOM     32  N   UNL     1     128.306 136.209 154.165  1.00  0.00    -0.299 NA
ATOM     33  C   UNL     1     127.651 135.385 155.058  1.00  0.00     0.113 C 
ATOM     34  C   UNL     1     128.256 137.534 154.552  1.00  0.00     0.113 C 
ATOM     35  C   UNL     1     126.208 135.834 155.275  1.00  0.00     0.175 C 
ATOM     36  C   UNL     1     126.820 138.001 154.781  1.00  0.00     0.175 C 
ATOM     37  O   UNL     1     126.134 137.165 155.644  1.00  0.00    -0.379 OA
ENDBRANCH  31  32
ENDBRANCH  30  31
ENDBRANCH  25  30
ENDBRANCH  21  24
ENDBRANCH   3  21
TORSDOF 8
ENDMDL
