MODEL 1
REMARK VINA RESULT:    -6.516      0.000      0.000
REMARK INTER + INTRA:         -10.806
REMARK INTER:                  -9.564
REMARK INTRA:                  -1.242
REMARK UNBOUND:                -1.242
REMARK SMILES Cn1nc(C(F)(F)F)cc1C(=O)Nc1ccc(S(=O)(=O)N2CCCC[C@H]2CCN2CCOCC2)cc1
REMARK SMILES IDX 16 1 15 2 17 3 35 4 36 5 14 6 13 7 11 8 12 9 10 11 2 12 3 13
REMARK SMILES IDX 4 14 9 15 1 16 5 17 6 18 7 19 8 20 18 21 19 22 20 23 21 24
REMARK SMILES IDX 26 25 22 26 25 27 23 28 24 29 27 30 28 31 29 32 30 33 34 34
REMARK SMILES IDX 31 35 33 36 32 37
REMARK H PARENT 13 10
ROOT
ATOM      1  C   UNL     1     135.766 136.909 150.868  1.00  0.00     0.024 A 
ATOM      2  C   UNL     1     136.421 137.562 149.657  1.00  0.00     0.027 A 
ATOM      3  C   UNL     1     134.343 136.372 150.758  1.00  0.00     0.082 A 
ATOM      4  C   UNL     1     133.568 136.486 149.454  1.00  0.00     0.024 A 
ATOM      5  C   UNL     1     134.223 137.138 148.245  1.00  0.00     0.027 A 
ATOM      6  C   UNL     1     135.652 137.657 148.344  1.00  0.00     0.041 A 
ENDROOT
BRANCH   6   7
ATOM      7  N   UNL     1     136.252 138.307 147.201  1.00  0.00    -0.321 N 
ATOM      8  C   UNL     1     136.708 137.650 145.994  1.00  0.00     0.273 C 
ATOM      9  O   UNL     1     136.639 136.479 145.843  1.00  0.00    -0.267 OA
ATOM     10  H   UNL     1     136.360 139.284 147.248  1.00  0.00     0.170 HD
BRANCH   8  11
ATOM     11  C   UNL     1     137.248 138.590 144.924  1.00  0.00     0.126 A 
ATOM     12  N   UNL     1     138.456 138.661 144.378  1.00  0.00    -0.262 N 
ATOM     13  N   UNL     1     138.431 139.681 143.435  1.00  0.00    -0.168 NA
ATOM     14  C   UNL     1     137.212 140.205 143.425  1.00  0.00     0.167 A 
ATOM     15  C   UNL     1     136.465 139.536 144.338  1.00  0.00     0.069 A 
ATOM     16  C   UNL     1     139.609 137.841 144.695  1.00  0.00     0.174 C 
BRANCH  14  17
ATOM     17  C   UNL     1     136.700 141.348 142.557  1.00  0.00     0.435 C 
ATOM     18  F   UNL     1     136.523 142.462 143.322  1.00  0.00    -0.164 F 
ATOM     19  F   UNL     1     135.516 140.998 141.979  1.00  0.00    -0.164 F 
ATOM     20  F   UNL     1     137.620 141.608 141.585  1.00  0.00    -0.164 F 
ENDBRANCH  14  17
ENDBRANCH   8  11
ENDBRANCH   6   7
BRANCH   3  21
ATOM     21  S   UNL     1     133.544 135.605 152.188  1.00  0.00     0.243 S 
ATOM     22  O   UNL     1     134.516 135.080 153.141  1.00  0.00    -0.207 OA
ATOM     23  O   UNL     1     132.833 134.395 151.783  1.00  0.00    -0.207 OA
BRANCH  21  24
ATOM     24  N   UNL     1     132.504 136.766 152.895  1.00  0.00    -0.195 NA
ATOM     25  C   UNL     1     132.035 136.592 154.334  1.00  0.00     0.074 C 
ATOM     26  C   UNL     1     132.726 138.255 152.650  1.00  0.00     0.103 C 
ATOM     27  C   UNL     1     132.912 137.320 155.341  1.00  0.00     0.020 C 
ATOM     28  C   UNL     1     133.600 138.931 153.694  1.00  0.00     0.017 C 
ATOM     29  C   UNL     1     133.098 138.726 155.033  1.00  0.00     0.003 C 
BRANCH  25  30
ATOM     30  C   UNL     1     130.615 137.090 154.460  1.00  0.00     0.036 C 
BRANCH  30  31
ATOM     31  C   UNL     1     129.673 136.019 153.915  1.00  0.00     0.086 C 
BRANCH  31  32
ATOM     32  N   UNL     1     128.472 136.371 154.098  1.00  0.00    -0.299 NA
ATOM     33  C   UNL     1     127.858 135.490 154.966  1.00  0.00     0.113 C 
ATOM     34  C   UNL     1     128.415 137.672 154.557  1.00  0.00     0.113 C 
ATOM     35  C   UNL     1     126.416 135.902 155.249  1.00  0.00     0.175 C 
ATOM     36  C   UNL     1     126.979 138.102 154.853  1.00  0.00     0.175 C 
ATOM     37  O   UNL     1     126.332 137.211 155.690  1.00  0.00    -0.379 OA
ENDBRANCH  31  32
ENDBRANCH  30  31
ENDBRANCH  25  30
ENDBRANCH  21  24
ENDBRANCH   3  21
TORSDOF 8
ENDMDL
