MODEL 1
REMARK VINA RESULT:    -6.501      0.000      0.000
REMARK INTER + INTRA:         -10.794
REMARK INTER:                  -9.542
REMARK INTRA:                  -1.252
REMARK UNBOUND:                -1.252
REMARK SMILES Cn1nc(C(F)(F)F)cc1C(=O)Nc1ccc(S(=O)(=O)N2CCCC[C@H]2CCN2CCOCC2)cc1
REMARK SMILES IDX 16 1 15 2 17 3 35 4 36 5 14 6 13 7 11 8 12 9 10 11 2 12 3 13
REMARK SMILES IDX 4 14 9 15 1 16 5 17 6 18 7 19 8 20 18 21 19 22 20 23 21 24
REMARK SMILES IDX 26 25 22 26 25 27 23 28 24 29 27 30 28 31 29 32 30 33 34 34
REMARK SMILES IDX 31 35 33 36 32 37
REMARK H PARENT 13 10
ROOT
ATOM      1  C   UNL     1     135.744 136.902 150.843  1.00  0.00     0.024 A 
ATOM      2  C   UNL     1     136.385 137.564 149.629  1.00  0.00     0.027 A 
ATOM      3  C   UNL     1     134.315 136.377 150.749  1.00  0.00     0.082 A 
ATOM      4  C   UNL     1     133.522 136.510 149.458  1.00  0.00     0.024 A 
ATOM      5  C   UNL     1     134.163 137.171 148.246  1.00  0.00     0.027 A 
ATOM      6  C   UNL     1     135.597 137.679 148.329  1.00  0.00     0.041 A 
ENDROOT
BRANCH   6   7
ATOM      7  N   UNL     1     136.184 138.337 147.184  1.00  0.00    -0.321 N 
ATOM      8  C   UNL     1     136.684 137.682 145.993  1.00  0.00     0.273 C 
ATOM      9  O   UNL     1     136.667 136.507 145.860  1.00  0.00    -0.267 OA
ATOM     10  H   UNL     1     136.251 139.318 147.217  1.00  0.00     0.170 HD
BRANCH   8  11
ATOM     11  C   UNL     1     137.198 138.628 144.916  1.00  0.00     0.126 A 
ATOM     12  N   UNL     1     138.396 138.708 144.347  1.00  0.00    -0.262 N 
ATOM     13  N   UNL     1     138.347 139.730 143.408  1.00  0.00    -0.168 NA
ATOM     14  C   UNL     1     137.125 140.247 143.423  1.00  0.00     0.167 A 
ATOM     15  C   UNL     1     136.400 139.571 144.348  1.00  0.00     0.069 A 
ATOM     16  C   UNL     1     139.559 137.893 144.640  1.00  0.00     0.174 C 
BRANCH  14  17
ATOM     17  C   UNL     1     136.590 141.391 142.568  1.00  0.00     0.435 C 
ATOM     18  F   UNL     1     135.547 141.992 143.206  1.00  0.00    -0.164 F 
ATOM     19  F   UNL     1     136.174 140.912 141.362  1.00  0.00    -0.164 F 
ATOM     20  F   UNL     1     137.588 142.300 142.378  1.00  0.00    -0.164 F 
ENDBRANCH  14  17
ENDBRANCH   8  11
ENDBRANCH   6   7
BRANCH   3  21
ATOM     21  S   UNL     1     133.533 135.600 152.182  1.00  0.00     0.243 S 
ATOM     22  O   UNL     1     134.515 135.079 153.127  1.00  0.00    -0.207 OA
ATOM     23  O   UNL     1     132.827 134.386 151.779  1.00  0.00    -0.207 OA
BRANCH  21  24
ATOM     24  N   UNL     1     132.489 136.751 152.900  1.00  0.00    -0.195 NA
ATOM     25  C   UNL     1     132.049 136.581 154.349  1.00  0.00     0.074 C 
ATOM     26  C   UNL     1     132.687 138.242 152.641  1.00  0.00     0.103 C 
ATOM     27  C   UNL     1     132.934 137.328 155.334  1.00  0.00     0.020 C 
ATOM     28  C   UNL     1     133.570 138.937 153.664  1.00  0.00     0.017 C 
ATOM     29  C   UNL     1     133.095 138.735 155.014  1.00  0.00     0.003 C 
BRANCH  25  30
ATOM     30  C   UNL     1     130.625 137.060 154.497  1.00  0.00     0.036 C 
BRANCH  30  31
ATOM     31  C   UNL     1     129.692 136.008 153.902  1.00  0.00     0.086 C 
BRANCH  31  32
ATOM     32  N   UNL     1     128.489 136.347 154.089  1.00  0.00    -0.299 NA
ATOM     33  C   UNL     1     127.892 135.470 154.973  1.00  0.00     0.113 C 
ATOM     34  C   UNL     1     128.417 137.654 154.530  1.00  0.00     0.113 C 
ATOM     35  C   UNL     1     126.447 135.868 155.262  1.00  0.00     0.175 C 
ATOM     36  C   UNL     1     126.979 138.069 154.832  1.00  0.00     0.175 C 
ATOM     37  O   UNL     1     126.350 137.181 155.687  1.00  0.00    -0.379 OA
ENDBRANCH  31  32
ENDBRANCH  30  31
ENDBRANCH  25  30
ENDBRANCH  21  24
ENDBRANCH   3  21
TORSDOF 8
ENDMDL
