MODEL 1
REMARK VINA RESULT:    -6.506      0.000      0.000
REMARK INTER + INTRA:         -10.801
REMARK INTER:                  -9.548
REMARK INTRA:                  -1.252
REMARK UNBOUND:                -1.252
REMARK SMILES Cn1nc(C(F)(F)F)cc1C(=O)Nc1ccc(S(=O)(=O)N2CCCC[C@H]2CCN2CCOCC2)cc1
REMARK SMILES IDX 16 1 15 2 17 3 35 4 36 5 14 6 13 7 11 8 12 9 10 11 2 12 3 13
REMARK SMILES IDX 4 14 9 15 1 16 5 17 6 18 7 19 8 20 18 21 19 22 20 23 21 24
REMARK SMILES IDX 26 25 22 26 25 27 23 28 24 29 27 30 28 31 29 32 30 33 34 34
REMARK SMILES IDX 31 35 33 36 32 37
REMARK H PARENT 13 10
ROOT
ATOM      1  C   UNL     1     135.734 136.915 150.848  1.00  0.00     0.024 A 
ATOM      2  C   UNL     1     136.377 137.575 149.634  1.00  0.00     0.027 A 
ATOM      3  C   UNL     1     134.310 136.378 150.748  1.00  0.00     0.082 A 
ATOM      4  C   UNL     1     133.523 136.498 149.452  1.00  0.00     0.024 A 
ATOM      5  C   UNL     1     134.166 137.158 148.240  1.00  0.00     0.027 A 
ATOM      6  C   UNL     1     135.595 137.677 148.329  1.00  0.00     0.041 A 
ENDROOT
BRANCH   6   7
ATOM      7  N   UNL     1     136.183 138.335 147.184  1.00  0.00    -0.321 N 
ATOM      8  C   UNL     1     136.692 137.678 145.998  1.00  0.00     0.273 C 
ATOM      9  O   UNL     1     136.681 136.503 145.868  1.00  0.00    -0.267 OA
ATOM     10  H   UNL     1     136.244 139.316 147.214  1.00  0.00     0.170 HD
BRANCH   8  11
ATOM     11  C   UNL     1     137.205 138.623 144.919  1.00  0.00     0.126 A 
ATOM     12  N   UNL     1     138.404 138.707 144.355  1.00  0.00    -0.262 N 
ATOM     13  N   UNL     1     138.354 139.726 143.412  1.00  0.00    -0.168 NA
ATOM     14  C   UNL     1     137.129 140.236 143.420  1.00  0.00     0.167 A 
ATOM     15  C   UNL     1     136.404 139.560 144.345  1.00  0.00     0.069 A 
ATOM     16  C   UNL     1     139.570 137.900 144.655  1.00  0.00     0.174 C 
BRANCH  14  17
ATOM     17  C   UNL     1     136.591 141.374 142.559  1.00  0.00     0.435 C 
ATOM     18  F   UNL     1     136.168 140.883 141.360  1.00  0.00    -0.164 F 
ATOM     19  F   UNL     1     137.569 142.301 142.354  1.00  0.00    -0.164 F 
ATOM     20  F   UNL     1     135.541 141.955 143.206  1.00  0.00    -0.164 F 
ENDBRANCH  14  17
ENDBRANCH   8  11
ENDBRANCH   6   7
BRANCH   3  21
ATOM     21  S   UNL     1     133.526 135.602 152.181  1.00  0.00     0.243 S 
ATOM     22  O   UNL     1     134.507 135.080 153.126  1.00  0.00    -0.207 OA
ATOM     23  O   UNL     1     132.819 134.388 151.778  1.00  0.00    -0.207 OA
BRANCH  21  24
ATOM     24  N   UNL     1     132.483 136.754 152.898  1.00  0.00    -0.195 NA
ATOM     25  C   UNL     1     132.041 136.584 154.346  1.00  0.00     0.074 C 
ATOM     26  C   UNL     1     132.682 138.244 152.639  1.00  0.00     0.103 C 
ATOM     27  C   UNL     1     132.925 137.330 155.333  1.00  0.00     0.020 C 
ATOM     28  C   UNL     1     133.565 138.938 153.664  1.00  0.00     0.017 C 
ATOM     29  C   UNL     1     133.088 138.736 155.013  1.00  0.00     0.003 C 
BRANCH  25  30
ATOM     30  C   UNL     1     130.616 137.064 154.492  1.00  0.00     0.036 C 
BRANCH  30  31
ATOM     31  C   UNL     1     129.683 136.008 153.907  1.00  0.00     0.086 C 
BRANCH  31  32
ATOM     32  N   UNL     1     128.480 136.348 154.096  1.00  0.00    -0.299 NA
ATOM     33  C   UNL     1     127.883 135.472 154.980  1.00  0.00     0.113 C 
ATOM     34  C   UNL     1     128.410 137.655 154.536  1.00  0.00     0.113 C 
ATOM     35  C   UNL     1     126.438 135.871 155.269  1.00  0.00     0.175 C 
ATOM     36  C   UNL     1     126.972 138.071 154.838  1.00  0.00     0.175 C 
ATOM     37  O   UNL     1     126.343 137.184 155.693  1.00  0.00    -0.379 OA
ENDBRANCH  31  32
ENDBRANCH  30  31
ENDBRANCH  25  30
ENDBRANCH  21  24
ENDBRANCH   3  21
TORSDOF 8
ENDMDL
