MODEL 1
REMARK VINA RESULT:    -6.694      0.000      0.000
REMARK INTER + INTRA:         -10.994
REMARK INTER:                  -9.825
REMARK INTRA:                  -1.170
REMARK UNBOUND:                -1.170
REMARK SMILES Cn1nc(C(F)(F)F)cc1C(=O)Nc1ccc(S(=O)(=O)N2CCCC[C@H]2CCN2CCOCC2)cc1
REMARK SMILES IDX 16 1 15 2 17 3 35 4 36 5 14 6 13 7 11 8 12 9 10 11 2 12 3 13
REMARK SMILES IDX 4 14 9 15 1 16 5 17 6 18 7 19 8 20 18 21 19 22 20 23 21 24
REMARK SMILES IDX 26 25 22 26 25 27 23 28 24 29 27 30 28 31 29 32 30 33 34 34
REMARK SMILES IDX 31 35 33 36 32 37
REMARK H PARENT 13 10
ROOT
ATOM      1  C   UNL     1     135.775 136.906 150.831  1.00  0.00     0.024 A 
ATOM      2  C   UNL     1     136.463 137.549 149.633  1.00  0.00     0.027 A 
ATOM      3  C   UNL     1     134.365 136.347 150.679  1.00  0.00     0.082 A 
ATOM      4  C   UNL     1     133.635 136.428 149.347  1.00  0.00     0.024 A 
ATOM      5  C   UNL     1     134.323 137.071 148.151  1.00  0.00     0.027 A 
ATOM      6  C   UNL     1     135.740 137.612 148.292  1.00  0.00     0.041 A 
ENDROOT
BRANCH   6   7
ATOM      7  N   UNL     1     136.371 138.253 147.161  1.00  0.00    -0.321 N 
ATOM      8  C   UNL     1     136.909 137.581 145.996  1.00  0.00     0.273 C 
ATOM      9  O   UNL     1     136.890 136.405 145.877  1.00  0.00    -0.267 OA
ATOM     10  H   UNL     1     136.441 139.235 147.184  1.00  0.00     0.170 HD
BRANCH   8  11
ATOM     11  C   UNL     1     137.466 138.511 144.926  1.00  0.00     0.126 A 
ATOM     12  N   UNL     1     138.665 138.540 144.358  1.00  0.00    -0.262 N 
ATOM     13  N   UNL     1     138.663 139.571 143.427  1.00  0.00    -0.168 NA
ATOM     14  C   UNL     1     137.466 140.144 143.446  1.00  0.00     0.167 A 
ATOM     15  C   UNL     1     136.711 139.494 144.366  1.00  0.00     0.069 A 
ATOM     16  C   UNL     1     139.790 137.671 144.643  1.00  0.00     0.174 C 
BRANCH  14  17
ATOM     17  C   UNL     1     136.984 141.317 142.601  1.00  0.00     0.435 C 
ATOM     18  F   UNL     1     136.365 140.852 141.479  1.00  0.00    -0.164 F 
ATOM     19  F   UNL     1     138.043 142.099 142.248  1.00  0.00    -0.164 F 
ATOM     20  F   UNL     1     136.100 142.052 143.334  1.00  0.00    -0.164 F 
ENDBRANCH  14  17
ENDBRANCH   8  11
ENDBRANCH   6   7
BRANCH   3  21
ATOM     21  S   UNL     1     133.527 135.590 152.092  1.00  0.00     0.243 S 
ATOM     22  O   UNL     1     134.471 135.110 153.095  1.00  0.00    -0.207 OA
ATOM     23  O   UNL     1     132.861 134.354 151.686  1.00  0.00    -0.207 OA
BRANCH  21  24
ATOM     24  N   UNL     1     132.431 136.740 152.731  1.00  0.00    -0.195 NA
ATOM     25  C   UNL     1     131.834 136.534 154.117  1.00  0.00     0.074 C 
ATOM     26  C   UNL     1     132.679 138.233 152.543  1.00  0.00     0.103 C 
ATOM     27  C   UNL     1     132.618 137.233 155.216  1.00  0.00     0.020 C 
ATOM     28  C   UNL     1     133.458 138.879 153.677  1.00  0.00     0.017 C 
ATOM     29  C   UNL     1     132.837 138.645 154.960  1.00  0.00     0.003 C 
BRANCH  25  30
ATOM     30  C   UNL     1     130.409 137.036 154.126  1.00  0.00     0.036 C 
BRANCH  30  31
ATOM     31  C   UNL     1     129.468 135.835 154.093  1.00  0.00     0.086 C 
BRANCH  31  32
ATOM     32  N   UNL     1     128.271 136.226 154.197  1.00  0.00    -0.299 NA
ATOM     33  C   UNL     1     127.586 135.397 155.063  1.00  0.00     0.113 C 
ATOM     34  C   UNL     1     128.226 137.546 154.601  1.00  0.00     0.113 C 
ATOM     35  C   UNL     1     126.143 135.859 155.252  1.00  0.00     0.175 C 
ATOM     36  C   UNL     1     126.790 138.025 154.802  1.00  0.00     0.175 C 
ATOM     37  O   UNL     1     126.074 137.185 155.638  1.00  0.00    -0.379 OA
ENDBRANCH  31  32
ENDBRANCH  30  31
ENDBRANCH  25  30
ENDBRANCH  21  24
ENDBRANCH   3  21
TORSDOF 8
ENDMDL
