MODEL 1
REMARK VINA RESULT:    -6.530      0.000      0.000
REMARK INTER + INTRA:         -10.770
REMARK INTER:                  -9.584
REMARK INTRA:                  -1.186
REMARK UNBOUND:                -1.186
REMARK SMILES Cn1nc(C(F)(F)F)cc1C(=O)Nc1ccc(S(=O)(=O)N2CCCC[C@H]2CCN2CCOCC2)cc1
REMARK SMILES IDX 16 1 15 2 17 3 35 4 36 5 14 6 13 7 11 8 12 9 10 11 2 12 3 13
REMARK SMILES IDX 4 14 9 15 1 16 5 17 6 18 7 19 8 20 18 21 19 22 20 23 21 24
REMARK SMILES IDX 26 25 22 26 25 27 23 28 24 29 27 30 28 31 29 32 30 33 34 34
REMARK SMILES IDX 31 35 33 36 32 37
REMARK H PARENT 13 10
ROOT
ATOM      1  C   UNL     1     135.813 136.911 150.808  1.00  0.00     0.024 A 
ATOM      2  C   UNL     1     136.478 137.559 149.600  1.00  0.00     0.027 A 
ATOM      3  C   UNL     1     134.388 136.382 150.691  1.00  0.00     0.082 A 
ATOM      4  C   UNL     1     133.620 136.498 149.383  1.00  0.00     0.024 A 
ATOM      5  C   UNL     1     134.285 137.145 148.177  1.00  0.00     0.027 A 
ATOM      6  C   UNL     1     135.716 137.657 148.282  1.00  0.00     0.041 A 
ENDROOT
BRANCH   6   7
ATOM      7  N   UNL     1     136.325 138.302 147.142  1.00  0.00    -0.321 N 
ATOM      8  C   UNL     1     136.844 137.635 145.966  1.00  0.00     0.273 C 
ATOM      9  O   UNL     1     136.824 136.459 145.843  1.00  0.00    -0.267 OA
ATOM     10  H   UNL     1     136.395 139.284 147.167  1.00  0.00     0.170 HD
BRANCH   8  11
ATOM     11  C   UNL     1     137.379 138.569 144.889  1.00  0.00     0.126 A 
ATOM     12  N   UNL     1     138.580 138.624 144.323  1.00  0.00    -0.262 N 
ATOM     13  N   UNL     1     138.554 139.646 143.383  1.00  0.00    -0.168 NA
ATOM     14  C   UNL     1     137.343 140.188 143.395  1.00  0.00     0.167 A 
ATOM     15  C   UNL     1     136.602 139.528 144.319  1.00  0.00     0.069 A 
ATOM     16  C   UNL     1     139.725 137.785 144.619  1.00  0.00     0.174 C 
BRANCH  14  17
ATOM     17  C   UNL     1     136.834 141.342 142.538  1.00  0.00     0.435 C 
ATOM     18  F   UNL     1     137.046 142.523 143.185  1.00  0.00    -0.164 F 
ATOM     19  F   UNL     1     135.502 141.186 142.296  1.00  0.00    -0.164 F 
ATOM     20  F   UNL     1     137.514 141.345 141.357  1.00  0.00    -0.164 F 
ENDBRANCH  14  17
ENDBRANCH   8  11
ENDBRANCH   6   7
BRANCH   3  21
ATOM     21  S   UNL     1     133.578 135.621 152.118  1.00  0.00     0.243 S 
ATOM     22  O   UNL     1     134.542 135.101 153.082  1.00  0.00    -0.207 OA
ATOM     23  O   UNL     1     132.871 134.407 151.713  1.00  0.00    -0.207 OA
BRANCH  21  24
ATOM     24  N   UNL     1     132.530 136.783 152.810  1.00  0.00    -0.195 NA
ATOM     25  C   UNL     1     131.926 136.540 154.188  1.00  0.00     0.074 C 
ATOM     26  C   UNL     1     132.838 138.272 152.689  1.00  0.00     0.103 C 
ATOM     27  C   UNL     1     132.740 137.157 155.314  1.00  0.00     0.020 C 
ATOM     28  C   UNL     1     133.644 138.835 153.849  1.00  0.00     0.017 C 
ATOM     29  C   UNL     1     133.015 138.569 155.122  1.00  0.00     0.003 C 
BRANCH  25  30
ATOM     30  C   UNL     1     130.523 137.099 154.223  1.00  0.00     0.036 C 
BRANCH  30  31
ATOM     31  C   UNL     1     129.537 135.954 154.011  1.00  0.00     0.086 C 
BRANCH  31  32
ATOM     32  N   UNL     1     128.354 136.373 154.166  1.00  0.00    -0.299 NA
ATOM     33  C   UNL     1     127.674 135.534 155.027  1.00  0.00     0.113 C 
ATOM     34  C   UNL     1     128.359 137.679 154.613  1.00  0.00     0.113 C 
ATOM     35  C   UNL     1     126.252 136.028 155.277  1.00  0.00     0.175 C 
ATOM     36  C   UNL     1     126.943 138.190 154.876  1.00  0.00     0.175 C 
ATOM     37  O   UNL     1     126.232 137.343 155.706  1.00  0.00    -0.379 OA
ENDBRANCH  31  32
ENDBRANCH  30  31
ENDBRANCH  25  30
ENDBRANCH  21  24
ENDBRANCH   3  21
TORSDOF 8
ENDMDL
