MODEL 1
REMARK VINA RESULT:    -6.511      0.000      0.000
REMARK INTER + INTRA:         -10.807
REMARK INTER:                  -9.556
REMARK INTRA:                  -1.250
REMARK UNBOUND:                -1.250
REMARK SMILES Cn1nc(C(F)(F)F)cc1C(=O)Nc1ccc(S(=O)(=O)N2CCCC[C@H]2CCN2CCOCC2)cc1
REMARK SMILES IDX 16 1 15 2 17 3 35 4 36 5 14 6 13 7 11 8 12 9 10 11 2 12 3 13
REMARK SMILES IDX 4 14 9 15 1 16 5 17 6 18 7 19 8 20 18 21 19 22 20 23 21 24
REMARK SMILES IDX 26 25 22 26 25 27 23 28 24 29 27 30 28 31 29 32 30 33 34 34
REMARK SMILES IDX 31 35 33 36 32 37
REMARK H PARENT 13 10
ROOT
ATOM      1  C   UNL     1     135.741 136.920 150.840  1.00  0.00     0.024 A 
ATOM      2  C   UNL     1     136.384 137.576 149.625  1.00  0.00     0.027 A 
ATOM      3  C   UNL     1     134.319 136.379 150.741  1.00  0.00     0.082 A 
ATOM      4  C   UNL     1     133.533 136.491 149.444  1.00  0.00     0.024 A 
ATOM      5  C   UNL     1     134.176 137.146 148.230  1.00  0.00     0.027 A 
ATOM      6  C   UNL     1     135.604 137.670 148.317  1.00  0.00     0.041 A 
ENDROOT
BRANCH   6   7
ATOM      7  N   UNL     1     136.193 138.323 147.171  1.00  0.00    -0.321 N 
ATOM      8  C   UNL     1     136.745 137.660 146.008  1.00  0.00     0.273 C 
ATOM      9  O   UNL     1     136.776 136.483 145.903  1.00  0.00    -0.267 OA
ATOM     10  H   UNL     1     136.221 139.307 147.181  1.00  0.00     0.170 HD
BRANCH   8  11
ATOM     11  C   UNL     1     137.248 138.600 144.919  1.00  0.00     0.126 A 
ATOM     12  N   UNL     1     138.444 138.684 144.347  1.00  0.00    -0.262 N 
ATOM     13  N   UNL     1     138.383 139.696 143.398  1.00  0.00    -0.168 NA
ATOM     14  C   UNL     1     137.157 140.202 143.410  1.00  0.00     0.167 A 
ATOM     15  C   UNL     1     136.440 139.530 144.344  1.00  0.00     0.069 A 
ATOM     16  C   UNL     1     139.615 137.883 144.645  1.00  0.00     0.174 C 
BRANCH  14  17
ATOM     17  C   UNL     1     136.610 141.332 142.545  1.00  0.00     0.435 C 
ATOM     18  F   UNL     1     135.428 140.951 141.984  1.00  0.00    -0.164 F 
ATOM     19  F   UNL     1     137.504 141.639 141.564  1.00  0.00    -0.164 F 
ATOM     20  F   UNL     1     136.404 142.426 143.332  1.00  0.00    -0.164 F 
ENDBRANCH  14  17
ENDBRANCH   8  11
ENDBRANCH   6   7
BRANCH   3  21
ATOM     21  S   UNL     1     133.534 135.608 152.176  1.00  0.00     0.243 S 
ATOM     22  O   UNL     1     134.516 135.092 153.126  1.00  0.00    -0.207 OA
ATOM     23  O   UNL     1     132.830 134.391 151.778  1.00  0.00    -0.207 OA
BRANCH  21  24
ATOM     24  N   UNL     1     132.488 136.761 152.887  1.00  0.00    -0.195 NA
ATOM     25  C   UNL     1     132.056 136.604 154.339  1.00  0.00     0.074 C 
ATOM     26  C   UNL     1     132.676 138.250 152.611  1.00  0.00     0.103 C 
ATOM     27  C   UNL     1     132.941 137.367 155.312  1.00  0.00     0.020 C 
ATOM     28  C   UNL     1     133.560 138.961 153.622  1.00  0.00     0.017 C 
ATOM     29  C   UNL     1     133.093 138.771 154.976  1.00  0.00     0.003 C 
BRANCH  25  30
ATOM     30  C   UNL     1     130.629 137.078 154.489  1.00  0.00     0.036 C 
BRANCH  30  31
ATOM     31  C   UNL     1     129.701 136.027 153.884  1.00  0.00     0.086 C 
BRANCH  31  32
ATOM     32  N   UNL     1     128.496 136.356 154.081  1.00  0.00    -0.299 NA
ATOM     33  C   UNL     1     127.911 135.467 154.961  1.00  0.00     0.113 C 
ATOM     34  C   UNL     1     128.418 137.658 154.533  1.00  0.00     0.113 C 
ATOM     35  C   UNL     1     126.465 135.852 155.260  1.00  0.00     0.175 C 
ATOM     36  C   UNL     1     126.978 138.060 154.846  1.00  0.00     0.175 C 
ATOM     37  O   UNL     1     126.360 137.160 155.696  1.00  0.00    -0.379 OA
ENDBRANCH  31  32
ENDBRANCH  30  31
ENDBRANCH  25  30
ENDBRANCH  21  24
ENDBRANCH   3  21
TORSDOF 8
ENDMDL
