MODEL 1
REMARK VINA RESULT:    -6.528      0.000      0.000
REMARK INTER + INTRA:         -10.805
REMARK INTER:                  -9.581
REMARK INTRA:                  -1.224
REMARK UNBOUND:                -1.224
REMARK SMILES Cn1nc(C(F)(F)F)cc1C(=O)Nc1ccc(S(=O)(=O)N2CCCC[C@H]2CCN2CCOCC2)cc1
REMARK SMILES IDX 16 1 15 2 17 3 35 4 36 5 14 6 13 7 11 8 12 9 10 11 2 12 3 13
REMARK SMILES IDX 4 14 9 15 1 16 5 17 6 18 7 19 8 20 18 21 19 22 20 23 21 24
REMARK SMILES IDX 26 25 22 26 25 27 23 28 24 29 27 30 28 31 29 32 30 33 34 34
REMARK SMILES IDX 31 35 33 36 32 37
REMARK H PARENT 13 10
ROOT
ATOM      1  C   UNL     1     135.760 136.943 150.877  1.00  0.00     0.024 A 
ATOM      2  C   UNL     1     136.416 137.596 149.667  1.00  0.00     0.027 A 
ATOM      3  C   UNL     1     134.348 136.379 150.756  1.00  0.00     0.082 A 
ATOM      4  C   UNL     1     133.586 136.465 149.442  1.00  0.00     0.024 A 
ATOM      5  C   UNL     1     134.243 137.118 148.234  1.00  0.00     0.027 A 
ATOM      6  C   UNL     1     135.661 137.664 148.344  1.00  0.00     0.041 A 
ENDROOT
BRANCH   6   7
ATOM      7  N   UNL     1     136.261 138.314 147.202  1.00  0.00    -0.321 N 
ATOM      8  C   UNL     1     136.707 137.658 145.990  1.00  0.00     0.273 C 
ATOM      9  O   UNL     1     136.627 136.489 145.834  1.00  0.00    -0.267 OA
ATOM     10  H   UNL     1     136.378 139.290 147.252  1.00  0.00     0.170 HD
BRANCH   8  11
ATOM     11  C   UNL     1     137.251 138.598 144.921  1.00  0.00     0.126 A 
ATOM     12  N   UNL     1     138.460 138.666 144.376  1.00  0.00    -0.262 N 
ATOM     13  N   UNL     1     138.438 139.687 143.435  1.00  0.00    -0.168 NA
ATOM     14  C   UNL     1     137.221 140.215 143.425  1.00  0.00     0.167 A 
ATOM     15  C   UNL     1     136.472 139.548 144.337  1.00  0.00     0.069 A 
ATOM     16  C   UNL     1     139.609 137.841 144.692  1.00  0.00     0.174 C 
BRANCH  14  17
ATOM     17  C   UNL     1     136.713 141.363 142.559  1.00  0.00     0.435 C 
ATOM     18  F   UNL     1     136.368 142.417 143.350  1.00  0.00    -0.164 F 
ATOM     19  F   UNL     1     135.630 140.956 141.840  1.00  0.00    -0.164 F 
ATOM     20  F   UNL     1     137.708 141.743 141.708  1.00  0.00    -0.164 F 
ENDBRANCH  14  17
ENDBRANCH   8  11
ENDBRANCH   6   7
BRANCH   3  21
ATOM     21  S   UNL     1     133.548 135.611 152.184  1.00  0.00     0.243 S 
ATOM     22  O   UNL     1     134.518 135.083 153.137  1.00  0.00    -0.207 OA
ATOM     23  O   UNL     1     132.834 134.403 151.777  1.00  0.00    -0.207 OA
BRANCH  21  24
ATOM     24  N   UNL     1     132.509 136.773 152.892  1.00  0.00    -0.195 NA
ATOM     25  C   UNL     1     132.016 136.583 154.321  1.00  0.00     0.074 C 
ATOM     26  C   UNL     1     132.751 138.263 152.673  1.00  0.00     0.103 C 
ATOM     27  C   UNL     1     132.884 137.287 155.352  1.00  0.00     0.020 C 
ATOM     28  C   UNL     1     133.615 138.914 153.740  1.00  0.00     0.017 C 
ATOM     29  C   UNL     1     133.091 138.695 155.068  1.00  0.00     0.003 C 
BRANCH  25  30
ATOM     30  C   UNL     1     130.599 137.094 154.432  1.00  0.00     0.036 C 
BRANCH  30  31
ATOM     31  C   UNL     1     129.648 136.006 153.940  1.00  0.00     0.086 C 
BRANCH  31  32
ATOM     32  N   UNL     1     128.451 136.373 154.113  1.00  0.00    -0.299 NA
ATOM     33  C   UNL     1     127.817 135.499 154.973  1.00  0.00     0.113 C 
ATOM     34  C   UNL     1     128.406 137.675 154.574  1.00  0.00     0.113 C 
ATOM     35  C   UNL     1     126.378 135.930 155.244  1.00  0.00     0.175 C 
ATOM     36  C   UNL     1     126.973 138.123 154.858  1.00  0.00     0.175 C 
ATOM     37  O   UNL     1     126.308 137.238 155.688  1.00  0.00    -0.379 OA
ENDBRANCH  31  32
ENDBRANCH  30  31
ENDBRANCH  25  30
ENDBRANCH  21  24
ENDBRANCH   3  21
TORSDOF 8
ENDMDL
