MODEL 1
REMARK VINA RESULT:    -6.653      0.000      0.000
REMARK INTER + INTRA:         -11.006
REMARK INTER:                  -9.765
REMARK INTRA:                  -1.241
REMARK UNBOUND:                -1.241
REMARK SMILES Cn1nc(C(F)(F)F)cc1C(=O)Nc1ccc(S(=O)(=O)N2CCCC[C@H]2CCN2CCOCC2)cc1
REMARK SMILES IDX 16 1 15 2 17 3 35 4 36 5 14 6 13 7 11 8 12 9 10 11 2 12 3 13
REMARK SMILES IDX 4 14 9 15 1 16 5 17 6 18 7 19 8 20 18 21 19 22 20 23 21 24
REMARK SMILES IDX 26 25 22 26 25 27 23 28 24 29 27 30 28 31 29 32 30 33 34 34
REMARK SMILES IDX 31 35 33 36 32 37
REMARK H PARENT 13 10
ROOT
ATOM      1  C   UNL     1     135.680 136.859 150.848  1.00  0.00     0.024 A 
ATOM      2  C   UNL     1     136.330 137.518 149.638  1.00  0.00     0.027 A 
ATOM      3  C   UNL     1     134.249 136.342 150.747  1.00  0.00     0.082 A 
ATOM      4  C   UNL     1     133.461 136.481 149.454  1.00  0.00     0.024 A 
ATOM      5  C   UNL     1     134.111 137.140 148.245  1.00  0.00     0.027 A 
ATOM      6  C   UNL     1     135.547 137.640 148.335  1.00  0.00     0.041 A 
ENDROOT
BRANCH   6   7
ATOM      7  N   UNL     1     136.143 138.297 147.194  1.00  0.00    -0.321 N 
ATOM      8  C   UNL     1     136.679 137.638 146.020  1.00  0.00     0.273 C 
ATOM      9  O   UNL     1     136.688 136.462 145.901  1.00  0.00    -0.267 OA
ATOM     10  H   UNL     1     136.189 139.279 147.216  1.00  0.00     0.170 HD
BRANCH   8  11
ATOM     11  C   UNL     1     137.194 138.582 144.941  1.00  0.00     0.126 A 
ATOM     12  N   UNL     1     138.389 138.654 144.367  1.00  0.00    -0.262 N 
ATOM     13  N   UNL     1     138.343 139.678 143.429  1.00  0.00    -0.168 NA
ATOM     14  C   UNL     1     137.125 140.204 143.451  1.00  0.00     0.167 A 
ATOM     15  C   UNL     1     136.400 139.532 144.380  1.00  0.00     0.069 A 
ATOM     16  C   UNL     1     139.548 137.830 144.651  1.00  0.00     0.174 C 
BRANCH  14  17
ATOM     17  C   UNL     1     136.594 141.353 142.602  1.00  0.00     0.435 C 
ATOM     18  F   UNL     1     137.599 141.859 141.833  1.00  0.00    -0.164 F 
ATOM     19  F   UNL     1     136.096 142.333 143.407  1.00  0.00    -0.164 F 
ATOM     20  F   UNL     1     135.602 140.880 141.794  1.00  0.00    -0.164 F 
ENDBRANCH  14  17
ENDBRANCH   8  11
ENDBRANCH   6   7
BRANCH   3  21
ATOM     21  S   UNL     1     133.456 135.567 152.176  1.00  0.00     0.243 S 
ATOM     22  O   UNL     1     134.432 135.071 153.142  1.00  0.00    -0.207 OA
ATOM     23  O   UNL     1     132.776 134.337 151.775  1.00  0.00    -0.207 OA
BRANCH  21  24
ATOM     24  N   UNL     1     132.384 136.709 152.866  1.00  0.00    -0.195 NA
ATOM     25  C   UNL     1     131.944 136.560 154.317  1.00  0.00     0.074 C 
ATOM     26  C   UNL     1     132.545 138.197 152.574  1.00  0.00     0.103 C 
ATOM     27  C   UNL     1     132.808 137.351 155.287  1.00  0.00     0.020 C 
ATOM     28  C   UNL     1     133.409 138.936 153.583  1.00  0.00     0.017 C 
ATOM     29  C   UNL     1     132.936 138.753 154.936  1.00  0.00     0.003 C 
BRANCH  25  30
ATOM     30  C   UNL     1     130.508 137.008 154.451  1.00  0.00     0.036 C 
BRANCH  30  31
ATOM     31  C   UNL     1     129.601 135.904 153.915  1.00  0.00     0.086 C 
BRANCH  31  32
ATOM     32  N   UNL     1     128.389 136.220 154.094  1.00  0.00    -0.299 NA
ATOM     33  C   UNL     1     127.823 135.375 155.028  1.00  0.00     0.113 C 
ATOM     34  C   UNL     1     128.285 137.546 154.465  1.00  0.00     0.113 C 
ATOM     35  C   UNL     1     126.369 135.749 155.306  1.00  0.00     0.175 C 
ATOM     36  C   UNL     1     126.838 137.938 154.755  1.00  0.00     0.175 C 
ATOM     37  O   UNL     1     126.239 137.080 155.661  1.00  0.00    -0.379 OA
ENDBRANCH  31  32
ENDBRANCH  30  31
ENDBRANCH  25  30
ENDBRANCH  21  24
ENDBRANCH   3  21
TORSDOF 8
ENDMDL
