MODEL 1
REMARK VINA RESULT:    -6.695      0.000      0.000
REMARK INTER + INTRA:         -11.020
REMARK INTER:                  -9.826
REMARK INTRA:                  -1.194
REMARK UNBOUND:                -1.194
REMARK SMILES Cn1nc(C(F)(F)F)cc1C(=O)Nc1ccc(S(=O)(=O)N2CCCC[C@H]2CCN2CCOCC2)cc1
REMARK SMILES IDX 16 1 15 2 17 3 35 4 36 5 14 6 13 7 11 8 12 9 10 11 2 12 3 13
REMARK SMILES IDX 4 14 9 15 1 16 5 17 6 18 7 19 8 20 18 21 19 22 20 23 21 24
REMARK SMILES IDX 26 25 22 26 25 27 23 28 24 29 27 30 28 31 29 32 30 33 34 34
REMARK SMILES IDX 31 35 33 36 32 37
REMARK H PARENT 13 10
ROOT
ATOM      1  C   UNL     1     135.769 136.918 150.793  1.00  0.00     0.024 A 
ATOM      2  C   UNL     1     136.436 137.574 149.591  1.00  0.00     0.027 A 
ATOM      3  C   UNL     1     134.353 136.368 150.663  1.00  0.00     0.082 A 
ATOM      4  C   UNL     1     133.597 136.470 149.347  1.00  0.00     0.024 A 
ATOM      5  C   UNL     1     134.264 137.125 148.146  1.00  0.00     0.027 A 
ATOM      6  C   UNL     1     135.686 137.659 148.265  1.00  0.00     0.041 A 
ENDROOT
BRANCH   6   7
ATOM      7  N   UNL     1     136.297 138.312 147.130  1.00  0.00    -0.321 N 
ATOM      8  C   UNL     1     136.834 137.650 145.959  1.00  0.00     0.273 C 
ATOM      9  O   UNL     1     136.832 136.474 145.837  1.00  0.00    -0.267 OA
ATOM     10  H   UNL     1     136.353 139.294 147.155  1.00  0.00     0.170 HD
BRANCH   8  11
ATOM     11  C   UNL     1     137.367 138.591 144.886  1.00  0.00     0.126 A 
ATOM     12  N   UNL     1     138.572 138.661 144.331  1.00  0.00    -0.262 N 
ATOM     13  N   UNL     1     138.541 139.683 143.390  1.00  0.00    -0.168 NA
ATOM     14  C   UNL     1     137.322 140.208 143.390  1.00  0.00     0.167 A 
ATOM     15  C   UNL     1     136.582 139.539 144.309  1.00  0.00     0.069 A 
ATOM     16  C   UNL     1     139.726 137.838 144.638  1.00  0.00     0.174 C 
BRANCH  14  17
ATOM     17  C   UNL     1     136.806 141.354 142.528  1.00  0.00     0.435 C 
ATOM     18  F   UNL     1     136.515 142.427 143.317  1.00  0.00    -0.164 F 
ATOM     19  F   UNL     1     135.686 140.962 141.859  1.00  0.00    -0.164 F 
ATOM     20  F   UNL     1     137.773 141.701 141.633  1.00  0.00    -0.164 F 
ENDBRANCH  14  17
ENDBRANCH   8  11
ENDBRANCH   6   7
BRANCH   3  21
ATOM     21  S   UNL     1     133.540 135.597 152.082  1.00  0.00     0.243 S 
ATOM     22  O   UNL     1     134.502 135.111 153.067  1.00  0.00    -0.207 OA
ATOM     23  O   UNL     1     132.873 134.361 151.677  1.00  0.00    -0.207 OA
BRANCH  21  24
ATOM     24  N   UNL     1     132.450 136.736 152.748  1.00  0.00    -0.195 NA
ATOM     25  C   UNL     1     131.904 136.535 154.156  1.00  0.00     0.074 C 
ATOM     26  C   UNL     1     132.671 138.231 152.538  1.00  0.00     0.103 C 
ATOM     27  C   UNL     1     132.715 137.256 155.221  1.00  0.00     0.020 C 
ATOM     28  C   UNL     1     133.478 138.899 153.639  1.00  0.00     0.017 C 
ATOM     29  C   UNL     1     132.904 138.669 154.945  1.00  0.00     0.003 C 
BRANCH  25  30
ATOM     30  C   UNL     1     130.473 137.018 154.209  1.00  0.00     0.036 C 
BRANCH  30  31
ATOM     31  C   UNL     1     129.548 135.827 153.975  1.00  0.00     0.086 C 
BRANCH  31  32
ATOM     32  N   UNL     1     128.345 136.183 154.128  1.00  0.00    -0.299 NA
ATOM     33  C   UNL     1     127.728 135.351 155.042  1.00  0.00     0.113 C 
ATOM     34  C   UNL     1     128.277 137.509 154.509  1.00  0.00     0.113 C 
ATOM     35  C   UNL     1     126.282 135.772 155.290  1.00  0.00     0.175 C 
ATOM     36  C   UNL     1     126.837 137.947 154.770  1.00  0.00     0.175 C 
ATOM     37  O   UNL     1     126.189 137.103 155.653  1.00  0.00    -0.379 OA
ENDBRANCH  31  32
ENDBRANCH  30  31
ENDBRANCH  25  30
ENDBRANCH  21  24
ENDBRANCH   3  21
TORSDOF 8
ENDMDL
